<?xml version="1.0" encoding="UTF-8"?>
           <routes xmlns:xsi="http://www.w3.org/2001/XMLSchema-instance" xsi:noNamespaceSchemaLocation="http://sumo.dlr.de/xsd/routes_file.xsd">
           <!-- Route -->
           <route edges="E0 E1 E2 E3 E4 -E11 -E10 -E8" color="yellow" id="route_0"/>
           <!-- Taxi-Type -->
           <vType id="taxi" vClass="taxi" personCapacity="5">
               <param key="has.taxi.device" value="true"/>
           </vType>
           <!-- People heading to the busstop -->
           <person id="1" depart="45.830000" color="yellow" departPos="45">
               <walk from="-E4961" to="-E4961" arrivalPos="45"/>
               <ride from="-E4961" to="E5103" lines="taxi"/>
           </person>
           <person id="2" depart="50.040000" color="yellow" departPos="64">
               <walk from="-E4134" to="-E4134" arrivalPos="64"/>
               <ride from="-E4134" to="E5103" lines="taxi"/>
           </person>
           <person id="3" depart="66.300000" color="yellow" departPos="60">
               <walk from="E2203" to="E2203" arrivalPos="60"/>
               <ride from="E2203" to="E5103" lines="taxi"/>
           </person>
           <person id="4" depart="123.120000" color="yellow" departPos="44">
               <walk from="-E2027" to="-E2027" arrivalPos="44"/>
               <ride from="-E2027" to="E5103" lines="taxi"/>
           </person>
           <person id="5" depart="127.330000" color="yellow" departPos="55">
               <walk from="-E2633" to="-E2633" arrivalPos="55"/>
               <ride from="-E2633" to="E5103" lines="taxi"/>
           </person>
           <person id="6" depart="129.420000" color="yellow" departPos="42">
               <walk from="E1968" to="E1968" arrivalPos="42"/>
               <ride from="E1968" to="E5103" lines="taxi"/>
           </person>
           <person id="7" depart="131.500000" color="yellow" departPos="48">
               <walk from="E3625" to="E3625" arrivalPos="48"/>
               <ride from="E3625" to="E5103" lines="taxi"/>
           </person>
           <person id="8" depart="164.900000" color="yellow" departPos="57">
               <walk from="-E800" to="-E800" arrivalPos="57"/>
               <ride from="-E800" to="E5103" lines="taxi"/>
           </person>
           <person id="9" depart="195.110000" color="yellow" departPos="54">
               <walk from="E984" to="E984" arrivalPos="54"/>
               <ride from="E984" to="E5103" lines="taxi"/>
           </person>
           <person id="10" depart="204.250000" color="yellow" departPos="100">
               <walk from="-E5103" to="-E5103" arrivalPos="100"/>
               <ride from="-E5103" to="-E4188" lines="taxi"/>
           </person>
           <person id="11" depart="210.250000" color="yellow" departPos="67">
               <walk from="-E2755" to="-E2755" arrivalPos="67"/>
               <ride from="-E2755" to="E5103" lines="taxi"/>
           </person>
           <person id="12" depart="222.520000" color="yellow" departPos="59">
               <walk from="-E366" to="-E366" arrivalPos="59"/>
               <ride from="-E366" to="E5103" lines="taxi"/>
           </person>
           <person id="13" depart="226.530000" color="yellow" departPos="40">
               <walk from="E4377" to="E4377" arrivalPos="40"/>
               <ride from="E4377" to="E5103" lines="taxi"/>
           </person>
           <person id="14" depart="290.910000" color="yellow" departPos="61">
               <walk from="E1391" to="E1391" arrivalPos="61"/>
               <ride from="E1391" to="E5103" lines="taxi"/>
           </person>
           <person id="15" depart="294.520000" color="yellow" departPos="41">
               <walk from="-E2417" to="-E2417" arrivalPos="41"/>
               <ride from="-E2417" to="E5103" lines="taxi"/>
           </person>
           <person id="16" depart="312.080000" color="yellow" departPos="59">
               <walk from="E1231" to="E1231" arrivalPos="59"/>
               <ride from="E1231" to="E5103" lines="taxi"/>
           </person>
           <person id="17" depart="319.210000" color="yellow" departPos="48">
               <walk from="E4861" to="E4861" arrivalPos="48"/>
               <ride from="E4861" to="E5103" lines="taxi"/>
           </person>
           <person id="18" depart="328.620000" color="yellow" departPos="55">
               <walk from="E2549" to="E2549" arrivalPos="55"/>
               <ride from="E2549" to="E5103" lines="taxi"/>
           </person>
           <person id="19" depart="361.860000" color="yellow" departPos="56">
               <walk from="E1838" to="E1838" arrivalPos="56"/>
               <ride from="E1838" to="E5103" lines="taxi"/>
           </person>
           <person id="20" depart="409.550000" color="yellow" departPos="100">
               <walk from="-E5103" to="-E5103" arrivalPos="100"/>
               <ride from="-E5103" to="-E5098" lines="taxi"/>
           </person>
           <person id="21" depart="427.460000" color="yellow" departPos="60">
               <walk from="E411" to="E411" arrivalPos="60"/>
               <ride from="E411" to="E5103" lines="taxi"/>
           </person>
           <person id="22" depart="427.800000" color="yellow" departPos="45">
               <walk from="E2154" to="E2154" arrivalPos="45"/>
               <ride from="E2154" to="E5103" lines="taxi"/>
           </person>
           <person id="23" depart="439.410000" color="yellow" departPos="58">
               <walk from="E4147" to="E4147" arrivalPos="58"/>
               <ride from="E4147" to="E5103" lines="taxi"/>
           </person>
           <person id="24" depart="455.460000" color="yellow" departPos="44">
               <walk from="E3638" to="E3638" arrivalPos="44"/>
               <ride from="E3638" to="E5103" lines="taxi"/>
           </person>
           <person id="25" depart="493.210000" color="yellow" departPos="51">
               <walk from="-E3451" to="-E3451" arrivalPos="51"/>
               <ride from="-E3451" to="E5103" lines="taxi"/>
           </person>
           <person id="26" depart="518.190000" color="yellow" departPos="60">
               <walk from="E3994" to="E3994" arrivalPos="60"/>
               <ride from="E3994" to="E5103" lines="taxi"/>
           </person>
           <person id="27" depart="525.700000" color="yellow" departPos="56">
               <walk from="E642" to="E642" arrivalPos="56"/>
               <ride from="E642" to="E5103" lines="taxi"/>
           </person>
           <person id="28" depart="528.930000" color="yellow" departPos="48">
               <walk from="-E587" to="-E587" arrivalPos="48"/>
               <ride from="-E587" to="E5103" lines="taxi"/>
           </person>
           <person id="29" depart="551.650000" color="yellow" departPos="42">
               <walk from="-E356" to="-E356" arrivalPos="42"/>
               <ride from="-E356" to="E5103" lines="taxi"/>
           </person>
           <person id="30" depart="603.750000" color="yellow" departPos="100">
               <walk from="-E5103" to="-E5103" arrivalPos="100"/>
               <ride from="-E5103" to="-E3464" lines="taxi"/>
           </person>
           <person id="31" depart="627.870000" color="yellow" departPos="65">
               <walk from="E3146" to="E3146" arrivalPos="65"/>
               <ride from="E3146" to="E5103" lines="taxi"/>
           </person>
           <person id="32" depart="665.800000" color="yellow" departPos="42">
               <walk from="-E1425" to="-E1425" arrivalPos="42"/>
               <ride from="-E1425" to="E5103" lines="taxi"/>
           </person>
           <person id="33" depart="677.490000" color="yellow" departPos="50">
               <walk from="E3187" to="E3187" arrivalPos="50"/>
               <ride from="E3187" to="E5103" lines="taxi"/>
           </person>
           <person id="34" depart="714.220000" color="yellow" departPos="47">
               <walk from="-E1541" to="-E1541" arrivalPos="47"/>
               <ride from="-E1541" to="E5103" lines="taxi"/>
           </person>
           <person id="35" depart="725.990000" color="yellow" departPos="55">
               <walk from="E1876" to="E1876" arrivalPos="55"/>
               <ride from="E1876" to="E5103" lines="taxi"/>
           </person>
           <person id="36" depart="732.950000" color="yellow" departPos="54">
               <walk from="E5093" to="E5093" arrivalPos="54"/>
               <ride from="E5093" to="E5103" lines="taxi"/>
           </person>
           <person id="37" depart="758.240000" color="yellow" departPos="60">
               <walk from="-E184" to="-E184" arrivalPos="60"/>
               <ride from="-E184" to="E5103" lines="taxi"/>
           </person>
           <person id="38" depart="767.060000" color="yellow" departPos="46">
               <walk from="E1599" to="E1599" arrivalPos="46"/>
               <ride from="E1599" to="E5103" lines="taxi"/>
           </person>
           <person id="39" depart="767.360000" color="yellow" departPos="62">
               <walk from="-E3288" to="-E3288" arrivalPos="62"/>
               <ride from="-E3288" to="E5103" lines="taxi"/>
           </person>
           <person id="40" depart="774.710000" color="yellow" departPos="100">
               <walk from="-E5103" to="-E5103" arrivalPos="100"/>
               <ride from="-E5103" to="-E4631" lines="taxi"/>
           </person>
           <person id="41" depart="882.850000" color="yellow" departPos="52">
               <walk from="-E1629" to="-E1629" arrivalPos="52"/>
               <ride from="-E1629" to="E5103" lines="taxi"/>
           </person>
           <person id="42" depart="927.460000" color="yellow" departPos="55">
               <walk from="-E4767" to="-E4767" arrivalPos="55"/>
               <ride from="-E4767" to="E5103" lines="taxi"/>
           </person>
           <person id="43" depart="929.890000" color="yellow" departPos="55">
               <walk from="-E3126" to="-E3126" arrivalPos="55"/>
               <ride from="-E3126" to="E5103" lines="taxi"/>
           </person>
           <person id="44" depart="948.970000" color="yellow" departPos="49">
               <walk from="-E1038" to="-E1038" arrivalPos="49"/>
               <ride from="-E1038" to="E5103" lines="taxi"/>
           </person>
           <person id="45" depart="1040.850000" color="yellow" departPos="52">
               <walk from="-E3973" to="-E3973" arrivalPos="52"/>
               <ride from="-E3973" to="E5103" lines="taxi"/>
           </person>
           <person id="46" depart="1044.950000" color="yellow" departPos="49">
               <walk from="-E2336" to="-E2336" arrivalPos="49"/>
               <ride from="-E2336" to="E5103" lines="taxi"/>
           </person>
           <person id="47" depart="1047.610000" color="yellow" departPos="60">
               <walk from="-E3939" to="-E3939" arrivalPos="60"/>
               <ride from="-E3939" to="E5103" lines="taxi"/>
           </person>
           <person id="48" depart="1082.490000" color="yellow" departPos="60">
               <walk from="-E914" to="-E914" arrivalPos="60"/>
               <ride from="-E914" to="E5103" lines="taxi"/>
           </person>
           <person id="49" depart="1092.460000" color="yellow" departPos="44">
               <walk from="-E2448" to="-E2448" arrivalPos="44"/>
               <ride from="-E2448" to="E5103" lines="taxi"/>
           </person>
           <person id="50" depart="1103.540000" color="yellow" departPos="100">
               <walk from="-E5103" to="-E5103" arrivalPos="100"/>
               <ride from="-E5103" to="-E4115" lines="taxi"/>
           </person>
           <person id="51" depart="1145.710000" color="yellow" departPos="43">
               <walk from="E123" to="E123" arrivalPos="43"/>
               <ride from="E123" to="E5103" lines="taxi"/>
           </person>
           <person id="52" depart="1149.980000" color="yellow" departPos="47">
               <walk from="E4884" to="E4884" arrivalPos="47"/>
               <ride from="E4884" to="E5103" lines="taxi"/>
           </person>
           <person id="53" depart="1155.170000" color="yellow" departPos="57">
               <walk from="-E1832" to="-E1832" arrivalPos="57"/>
               <ride from="-E1832" to="E5103" lines="taxi"/>
           </person>
           <person id="54" depart="1212.310000" color="yellow" departPos="56">
               <walk from="-E3922" to="-E3922" arrivalPos="56"/>
               <ride from="-E3922" to="E5103" lines="taxi"/>
           </person>
           <person id="55" depart="1222.930000" color="yellow" departPos="63">
               <walk from="E211" to="E211" arrivalPos="63"/>
               <ride from="E211" to="E5103" lines="taxi"/>
           </person>
           <person id="56" depart="1253.470000" color="yellow" departPos="67">
               <walk from="-E1352" to="-E1352" arrivalPos="67"/>
               <ride from="-E1352" to="E5103" lines="taxi"/>
           </person>
           <person id="57" depart="1277.640000" color="yellow" departPos="65">
               <walk from="-E4174" to="-E4174" arrivalPos="65"/>
               <ride from="-E4174" to="E5103" lines="taxi"/>
           </person>
           <person id="58" depart="1299.770000" color="yellow" departPos="69">
               <walk from="E3216" to="E3216" arrivalPos="69"/>
               <ride from="E3216" to="E5103" lines="taxi"/>
           </person>
           <person id="59" depart="1307.800000" color="yellow" departPos="64">
               <walk from="-E2800" to="-E2800" arrivalPos="64"/>
               <ride from="-E2800" to="E5103" lines="taxi"/>
           </person>
           <person id="60" depart="1326.870000" color="yellow" departPos="100">
               <walk from="-E5103" to="-E5103" arrivalPos="100"/>
               <ride from="-E5103" to="E3010" lines="taxi"/>
           </person>
           <person id="61" depart="1332.930000" color="yellow" departPos="44">
               <walk from="E658" to="E658" arrivalPos="44"/>
               <ride from="E658" to="E5103" lines="taxi"/>
           </person>
           <person id="62" depart="1334.490000" color="yellow" departPos="53">
               <walk from="-E873" to="-E873" arrivalPos="53"/>
               <ride from="-E873" to="E5103" lines="taxi"/>
           </person>
           <person id="63" depart="1358.460000" color="yellow" departPos="55">
               <walk from="-E3779" to="-E3779" arrivalPos="55"/>
               <ride from="-E3779" to="E5103" lines="taxi"/>
           </person>
           <person id="64" depart="1370.970000" color="yellow" departPos="42">
               <walk from="-E2253" to="-E2253" arrivalPos="42"/>
               <ride from="-E2253" to="E5103" lines="taxi"/>
           </person>
           <person id="65" depart="1393.600000" color="yellow" departPos="67">
               <walk from="E3533" to="E3533" arrivalPos="67"/>
               <ride from="E3533" to="E5103" lines="taxi"/>
           </person>
           <person id="66" depart="1445.070000" color="yellow" departPos="54">
               <walk from="-E2875" to="-E2875" arrivalPos="54"/>
               <ride from="-E2875" to="E5103" lines="taxi"/>
           </person>
           <person id="67" depart="1471.490000" color="yellow" departPos="48">
               <walk from="E3608" to="E3608" arrivalPos="48"/>
               <ride from="E3608" to="E5103" lines="taxi"/>
           </person>
           <person id="68" depart="1482.450000" color="yellow" departPos="58">
               <walk from="E796" to="E796" arrivalPos="58"/>
               <ride from="E796" to="E5103" lines="taxi"/>
           </person>
           <person id="69" depart="1486.250000" color="yellow" departPos="65">
               <walk from="-E4787" to="-E4787" arrivalPos="65"/>
               <ride from="-E4787" to="E5103" lines="taxi"/>
           </person>
           <person id="70" depart="1489.970000" color="yellow" departPos="100">
               <walk from="-E5103" to="-E5103" arrivalPos="100"/>
               <ride from="-E5103" to="-E3778" lines="taxi"/>
           </person>
           <person id="71" depart="1497.580000" color="yellow" departPos="45">
               <walk from="E4251" to="E4251" arrivalPos="45"/>
               <ride from="E4251" to="E5103" lines="taxi"/>
           </person>
           <person id="72" depart="1508.260000" color="yellow" departPos="49">
               <walk from="E664" to="E664" arrivalPos="49"/>
               <ride from="E664" to="E5103" lines="taxi"/>
           </person>
           <person id="73" depart="1526.160000" color="yellow" departPos="65">
               <walk from="E705" to="E705" arrivalPos="65"/>
               <ride from="E705" to="E5103" lines="taxi"/>
           </person>
           <person id="74" depart="1549.710000" color="yellow" departPos="58">
               <walk from="-E4500" to="-E4500" arrivalPos="58"/>
               <ride from="-E4500" to="E5103" lines="taxi"/>
           </person>
           <person id="75" depart="1579.630000" color="yellow" departPos="61">
               <walk from="-E1428" to="-E1428" arrivalPos="61"/>
               <ride from="-E1428" to="E5103" lines="taxi"/>
           </person>
           <person id="76" depart="1594.310000" color="yellow" departPos="45">
               <walk from="-E719" to="-E719" arrivalPos="45"/>
               <ride from="-E719" to="E5103" lines="taxi"/>
           </person>
           <person id="77" depart="1600.200000" color="yellow" departPos="65">
               <walk from="-E2703" to="-E2703" arrivalPos="65"/>
               <ride from="-E2703" to="E5103" lines="taxi"/>
           </person>
           <person id="78" depart="1600.650000" color="yellow" departPos="55">
               <walk from="-E2306" to="-E2306" arrivalPos="55"/>
               <ride from="-E2306" to="E5103" lines="taxi"/>
           </person>
           <person id="79" depart="1695.060000" color="yellow" departPos="61">
               <walk from="-E2828" to="-E2828" arrivalPos="61"/>
               <ride from="-E2828" to="E5103" lines="taxi"/>
           </person>
           <person id="80" depart="1712.200000" color="yellow" departPos="100">
               <walk from="-E5103" to="-E5103" arrivalPos="100"/>
               <ride from="-E5103" to="E4065" lines="taxi"/>
           </person>
           <person id="81" depart="1718.760000" color="yellow" departPos="51">
               <walk from="-E369" to="-E369" arrivalPos="51"/>
               <ride from="-E369" to="E5103" lines="taxi"/>
           </person>
           <person id="82" depart="1728.930000" color="yellow" departPos="45">
               <walk from="-E2880" to="-E2880" arrivalPos="45"/>
               <ride from="-E2880" to="E5103" lines="taxi"/>
           </person>
           <person id="83" depart="1756.150000" color="yellow" departPos="64">
               <walk from="-E1524" to="-E1524" arrivalPos="64"/>
               <ride from="-E1524" to="E5103" lines="taxi"/>
           </person>
           <person id="84" depart="1781.260000" color="yellow" departPos="42">
               <walk from="E3185" to="E3185" arrivalPos="42"/>
               <ride from="E3185" to="E5103" lines="taxi"/>
           </person>
           <person id="85" depart="1819.760000" color="yellow" departPos="48">
               <walk from="E2546" to="E2546" arrivalPos="48"/>
               <ride from="E2546" to="E5103" lines="taxi"/>
           </person>
           <person id="86" depart="1833.840000" color="yellow" departPos="50">
               <walk from="-E2193" to="-E2193" arrivalPos="50"/>
               <ride from="-E2193" to="E5103" lines="taxi"/>
           </person>
           <person id="87" depart="1848.840000" color="yellow" departPos="49">
               <walk from="E1606" to="E1606" arrivalPos="49"/>
               <ride from="E1606" to="E5103" lines="taxi"/>
           </person>
           <person id="88" depart="1855.960000" color="yellow" departPos="58">
               <walk from="E615" to="E615" arrivalPos="58"/>
               <ride from="E615" to="E5103" lines="taxi"/>
           </person>
           <person id="89" depart="1866.620000" color="yellow" departPos="52">
               <walk from="-E248" to="-E248" arrivalPos="52"/>
               <ride from="-E248" to="E5103" lines="taxi"/>
           </person>
           <person id="90" depart="1889.610000" color="yellow" departPos="100">
               <walk from="-E5103" to="-E5103" arrivalPos="100"/>
               <ride from="-E5103" to="E5016" lines="taxi"/>
           </person>
           <person id="91" depart="1910.010000" color="yellow" departPos="49">
               <walk from="E1817" to="E1817" arrivalPos="49"/>
               <ride from="E1817" to="E5103" lines="taxi"/>
           </person>
           <person id="92" depart="1959.330000" color="yellow" departPos="56">
               <walk from="-E4184" to="-E4184" arrivalPos="56"/>
               <ride from="-E4184" to="E5103" lines="taxi"/>
           </person>
           <person id="93" depart="1984.630000" color="yellow" departPos="56">
               <walk from="-E3442" to="-E3442" arrivalPos="56"/>
               <ride from="-E3442" to="E5103" lines="taxi"/>
           </person>
           <person id="94" depart="2035.310000" color="yellow" departPos="60">
               <walk from="E2740" to="E2740" arrivalPos="60"/>
               <ride from="E2740" to="E5103" lines="taxi"/>
           </person>
           <person id="95" depart="2073.900000" color="yellow" departPos="65">
               <walk from="-E1441" to="-E1441" arrivalPos="65"/>
               <ride from="-E1441" to="E5103" lines="taxi"/>
           </person>
           <person id="96" depart="2090.200000" color="yellow" departPos="57">
               <walk from="E2020" to="E2020" arrivalPos="57"/>
               <ride from="E2020" to="E5103" lines="taxi"/>
           </person>
           <person id="97" depart="2090.640000" color="yellow" departPos="65">
               <walk from="E1758" to="E1758" arrivalPos="65"/>
               <ride from="E1758" to="E5103" lines="taxi"/>
           </person>
           <person id="98" depart="2110.320000" color="yellow" departPos="65">
               <walk from="-E4770" to="-E4770" arrivalPos="65"/>
               <ride from="-E4770" to="E5103" lines="taxi"/>
           </person>
           <person id="99" depart="2123.730000" color="yellow" departPos="52">
               <walk from="E3218" to="E3218" arrivalPos="52"/>
               <ride from="E3218" to="E5103" lines="taxi"/>
           </person>
           <person id="100" depart="2129.230000" color="yellow" departPos="100">
               <walk from="-E5103" to="-E5103" arrivalPos="100"/>
               <ride from="-E5103" to="-E2915" lines="taxi"/>
           </person>
           <person id="101" depart="2146.540000" color="yellow" departPos="69">
               <walk from="-E230" to="-E230" arrivalPos="69"/>
               <ride from="-E230" to="E5103" lines="taxi"/>
           </person>
           <person id="102" depart="2149.700000" color="yellow" departPos="52">
               <walk from="-E1337" to="-E1337" arrivalPos="52"/>
               <ride from="-E1337" to="E5103" lines="taxi"/>
           </person>
           <person id="103" depart="2149.920000" color="yellow" departPos="64">
               <walk from="E3266" to="E3266" arrivalPos="64"/>
               <ride from="E3266" to="E5103" lines="taxi"/>
           </person>
           <person id="104" depart="2167.200000" color="yellow" departPos="48">
               <walk from="-E3127" to="-E3127" arrivalPos="48"/>
               <ride from="-E3127" to="E5103" lines="taxi"/>
           </person>
           <person id="105" depart="2191.100000" color="yellow" departPos="41">
               <walk from="-E2025" to="-E2025" arrivalPos="41"/>
               <ride from="-E2025" to="E5103" lines="taxi"/>
           </person>
           <person id="106" depart="2204.370000" color="yellow" departPos="68">
               <walk from="-E690" to="-E690" arrivalPos="68"/>
               <ride from="-E690" to="E5103" lines="taxi"/>
           </person>
           <person id="107" depart="2207.880000" color="yellow" departPos="61">
               <walk from="-E4636" to="-E4636" arrivalPos="61"/>
               <ride from="-E4636" to="E5103" lines="taxi"/>
           </person>
           <person id="108" depart="2234.500000" color="yellow" departPos="55">
               <walk from="-E2804" to="-E2804" arrivalPos="55"/>
               <ride from="-E2804" to="E5103" lines="taxi"/>
           </person>
           <person id="109" depart="2248.830000" color="yellow" departPos="60">
               <walk from="-E469" to="-E469" arrivalPos="60"/>
               <ride from="-E469" to="E5103" lines="taxi"/>
           </person>
           <person id="110" depart="2273.240000" color="yellow" departPos="100">
               <walk from="-E5103" to="-E5103" arrivalPos="100"/>
               <ride from="-E5103" to="-E3483" lines="taxi"/>
           </person>
           <person id="111" depart="2288.090000" color="yellow" departPos="49">
               <walk from="E1741" to="E1741" arrivalPos="49"/>
               <ride from="E1741" to="E5103" lines="taxi"/>
           </person>
           <person id="112" depart="2306.990000" color="yellow" departPos="61">
               <walk from="E1364" to="E1364" arrivalPos="61"/>
               <ride from="E1364" to="E5103" lines="taxi"/>
           </person>
           <person id="113" depart="2343.930000" color="yellow" departPos="48">
               <walk from="E3526" to="E3526" arrivalPos="48"/>
               <ride from="E3526" to="E5103" lines="taxi"/>
           </person>
           <person id="114" depart="2371.870000" color="yellow" departPos="69">
               <walk from="E1010" to="E1010" arrivalPos="69"/>
               <ride from="E1010" to="E5103" lines="taxi"/>
           </person>
           <person id="115" depart="2406.120000" color="yellow" departPos="46">
               <walk from="-E1018" to="-E1018" arrivalPos="46"/>
               <ride from="-E1018" to="E5103" lines="taxi"/>
           </person>
           <person id="116" depart="2424.360000" color="yellow" departPos="54">
               <walk from="-E205" to="-E205" arrivalPos="54"/>
               <ride from="-E205" to="E5103" lines="taxi"/>
           </person>
           <person id="117" depart="2441.200000" color="yellow" departPos="42">
               <walk from="E4920" to="E4920" arrivalPos="42"/>
               <ride from="E4920" to="E5103" lines="taxi"/>
           </person>
           <person id="118" depart="2465.170000" color="yellow" departPos="67">
               <walk from="E3765" to="E3765" arrivalPos="67"/>
               <ride from="E3765" to="E5103" lines="taxi"/>
           </person>
           <person id="119" depart="2466.780000" color="yellow" departPos="48">
               <walk from="E2300" to="E2300" arrivalPos="48"/>
               <ride from="E2300" to="E5103" lines="taxi"/>
           </person>
           <person id="120" depart="2478.270000" color="yellow" departPos="100">
               <walk from="-E5103" to="-E5103" arrivalPos="100"/>
               <ride from="-E5103" to="-E3153" lines="taxi"/>
           </person>
           <person id="121" depart="2506.720000" color="yellow" departPos="47">
               <walk from="E4790" to="E4790" arrivalPos="47"/>
               <ride from="E4790" to="E5103" lines="taxi"/>
           </person>
           <person id="122" depart="2515.300000" color="yellow" departPos="43">
               <walk from="E790" to="E790" arrivalPos="43"/>
               <ride from="E790" to="E5103" lines="taxi"/>
           </person>
           <person id="123" depart="2566.470000" color="yellow" departPos="62">
               <walk from="E2882" to="E2882" arrivalPos="62"/>
               <ride from="E2882" to="E5103" lines="taxi"/>
           </person>
           <person id="124" depart="2596.640000" color="yellow" departPos="48">
               <walk from="E1035" to="E1035" arrivalPos="48"/>
               <ride from="E1035" to="E5103" lines="taxi"/>
           </person>
           <person id="125" depart="2605.070000" color="yellow" departPos="45">
               <walk from="-E920" to="-E920" arrivalPos="45"/>
               <ride from="-E920" to="E5103" lines="taxi"/>
           </person>
           <person id="126" depart="2615.470000" color="yellow" departPos="58">
               <walk from="-E3991" to="-E3991" arrivalPos="58"/>
               <ride from="-E3991" to="E5103" lines="taxi"/>
           </person>
           <person id="127" depart="2650.420000" color="yellow" departPos="43">
               <walk from="-E4159" to="-E4159" arrivalPos="43"/>
               <ride from="-E4159" to="E5103" lines="taxi"/>
           </person>
           <person id="128" depart="2652.180000" color="yellow" departPos="55">
               <walk from="-E4830" to="-E4830" arrivalPos="55"/>
               <ride from="-E4830" to="E5103" lines="taxi"/>
           </person>
           <person id="129" depart="2655.250000" color="yellow" departPos="65">
               <walk from="-E3947" to="-E3947" arrivalPos="65"/>
               <ride from="-E3947" to="E5103" lines="taxi"/>
           </person>
           <person id="130" depart="2661.850000" color="yellow" departPos="100">
               <walk from="-E5103" to="-E5103" arrivalPos="100"/>
               <ride from="-E5103" to="-E561" lines="taxi"/>
           </person>
           <person id="131" depart="2679.500000" color="yellow" departPos="41">
               <walk from="E376" to="E376" arrivalPos="41"/>
               <ride from="E376" to="E5103" lines="taxi"/>
           </person>
           <person id="132" depart="2703.320000" color="yellow" departPos="65">