<?xml version="1.0" encoding="UTF-8"?>
           <routes xmlns:xsi="http://www.w3.org/2001/XMLSchema-instance" xsi:noNamespaceSchemaLocation="http://sumo.dlr.de/xsd/routes_file.xsd">
           <!-- Route -->
           <route edges="E0 E1 E2 E3 E4 -E11 -E10 -E8" color="yellow" id="route_0"/>
           <!-- Taxi-Type -->
           <vType id="taxi" vClass="taxi" personCapacity="5">
               <param key="has.taxi.device" value="true"/>
           </vType>
           <!-- People heading to the busstop -->
           <person id="1" depart="3.042000" color="yellow" departPos="65">
               <walk from="-E2403" to="-E2403" arrivalPos="65"/>
               <ride from="-E2403" to="E5103" lines="taxi"/>
           </person>
           <person id="2" depart="8.772000" color="yellow" departPos="44">
               <walk from="E5011" to="E5011" arrivalPos="44"/>
               <ride from="E5011" to="E5103" lines="taxi"/>
           </person>
           <person id="3" depart="9.546000" color="yellow" departPos="60">
               <walk from="-E5099" to="-E5099" arrivalPos="60"/>
               <ride from="-E5099" to="E5103" lines="taxi"/>
           </person>
           <person id="4" depart="21.894000" color="yellow" departPos="44">
               <walk from="-E1791" to="-E1791" arrivalPos="44"/>
               <ride from="-E1791" to="E5103" lines="taxi"/>
           </person>
           <person id="5" depart="29.724000" color="yellow" departPos="59">
               <walk from="E2381" to="E2381" arrivalPos="59"/>
               <ride from="E2381" to="E5103" lines="taxi"/>
           </person>
           <person id="6" depart="49.404000" color="yellow" departPos="62">
               <walk from="-E1004" to="-E1004" arrivalPos="62"/>
               <ride from="-E1004" to="E5103" lines="taxi"/>
           </person>
           <person id="7" depart="62.946000" color="yellow" departPos="42">
               <walk from="E1003" to="E1003" arrivalPos="42"/>
               <ride from="E1003" to="E5103" lines="taxi"/>
           </person>
           <person id="8" depart="76.338000" color="yellow" departPos="42">
               <walk from="E3042" to="E3042" arrivalPos="42"/>
               <ride from="E3042" to="E5103" lines="taxi"/>
           </person>
           <person id="9" depart="90.984000" color="yellow" departPos="43">
               <walk from="E2411" to="E2411" arrivalPos="43"/>
               <ride from="E2411" to="E5103" lines="taxi"/>
           </person>
           <person id="10" depart="99.060000" color="yellow" departPos="80">
               <walk from="-E5103" to="-E5103" arrivalPos="80"/>
               <ride from="-E5103" to="-E744" lines="taxi"/>
           </person>
           <person id="11" depart="121.380000" color="yellow" departPos="66">
               <walk from="E4727" to="E4727" arrivalPos="66"/>
               <ride from="E4727" to="E5103" lines="taxi"/>
           </person>
           <person id="12" depart="148.488000" color="yellow" departPos="58">
               <walk from="-E2503" to="-E2503" arrivalPos="58"/>
               <ride from="-E2503" to="E5103" lines="taxi"/>
           </person>
           <person id="13" depart="193.698000" color="yellow" departPos="54">
               <walk from="-E2638" to="-E2638" arrivalPos="54"/>
               <ride from="-E2638" to="E5103" lines="taxi"/>
           </person>
           <person id="14" depart="201.504000" color="yellow" departPos="46">
               <walk from="-E2212" to="-E2212" arrivalPos="46"/>
               <ride from="-E2212" to="E5103" lines="taxi"/>
           </person>
           <person id="15" depart="212.328000" color="yellow" departPos="61">
               <walk from="-E1171" to="-E1171" arrivalPos="61"/>
               <ride from="-E1171" to="E5103" lines="taxi"/>
           </person>
           <person id="16" depart="213.810000" color="yellow" departPos="41">
               <walk from="E2507" to="E2507" arrivalPos="41"/>
               <ride from="E2507" to="E5103" lines="taxi"/>
           </person>
           <person id="17" depart="215.982000" color="yellow" departPos="61">
               <walk from="-E5025" to="-E5025" arrivalPos="61"/>
               <ride from="-E5025" to="E5103" lines="taxi"/>
           </person>
           <person id="18" depart="226.812000" color="yellow" departPos="53">
               <walk from="-E648" to="-E648" arrivalPos="53"/>
               <ride from="-E648" to="E5103" lines="taxi"/>
           </person>
           <person id="19" depart="231.312000" color="yellow" departPos="43">
               <walk from="E4553" to="E4553" arrivalPos="43"/>
               <ride from="E4553" to="E5103" lines="taxi"/>
           </person>
           <person id="20" depart="240.654000" color="yellow" departPos="40">
               <walk from="-E5103" to="-E5103" arrivalPos="40"/>
               <ride from="-E5103" to="E4368" lines="taxi"/>
           </person>
           <person id="21" depart="251.976000" color="yellow" departPos="51">
               <walk from="E4823" to="E4823" arrivalPos="51"/>
               <ride from="E4823" to="E5103" lines="taxi"/>
           </person>
           <person id="22" depart="273.654000" color="yellow" departPos="69">
               <walk from="E1898" to="E1898" arrivalPos="69"/>
               <ride from="E1898" to="E5103" lines="taxi"/>
           </person>
           <person id="23" depart="286.626000" color="yellow" departPos="40">
               <walk from="E4566" to="E4566" arrivalPos="40"/>
               <ride from="E4566" to="E5103" lines="taxi"/>
           </person>
           <person id="24" depart="299.628000" color="yellow" departPos="53">
               <walk from="E2584" to="E2584" arrivalPos="53"/>
               <ride from="E2584" to="E5103" lines="taxi"/>
           </person>
           <person id="25" depart="303.330000" color="yellow" departPos="56">
               <walk from="-E1464" to="-E1464" arrivalPos="56"/>
               <ride from="-E1464" to="E5103" lines="taxi"/>
           </person>
           <person id="26" depart="322.296000" color="yellow" departPos="68">
               <walk from="E2307" to="E2307" arrivalPos="68"/>
               <ride from="E2307" to="E5103" lines="taxi"/>
           </person>
           <person id="27" depart="326.184000" color="yellow" departPos="65">
               <walk from="E1882" to="E1882" arrivalPos="65"/>
               <ride from="E1882" to="E5103" lines="taxi"/>
           </person>
           <person id="28" depart="345.138000" color="yellow" departPos="56">
               <walk from="E5058" to="E5058" arrivalPos="56"/>
               <ride from="E5058" to="E5103" lines="taxi"/>
           </person>
           <person id="29" depart="350.136000" color="yellow" departPos="67">
               <walk from="E2592" to="E2592" arrivalPos="67"/>
               <ride from="E2592" to="E5103" lines="taxi"/>
           </person>
           <person id="30" depart="365.274000" color="yellow" departPos="80">
               <walk from="-E5103" to="-E5103" arrivalPos="80"/>
               <ride from="-E5103" to="E4732" lines="taxi"/>
           </person>
           <person id="31" depart="368.784000" color="yellow" departPos="48">
               <walk from="-E4716" to="-E4716" arrivalPos="48"/>
               <ride from="-E4716" to="E5103" lines="taxi"/>
           </person>
           <person id="32" depart="382.602000" color="yellow" departPos="53">
               <walk from="E5068" to="E5068" arrivalPos="53"/>
               <ride from="E5068" to="E5103" lines="taxi"/>
           </person>
           <person id="33" depart="392.340000" color="yellow" departPos="54">
               <walk from="E4913" to="E4913" arrivalPos="54"/>
               <ride from="E4913" to="E5103" lines="taxi"/>
           </person>
           <person id="34" depart="395.556000" color="yellow" departPos="51">
               <walk from="E2277" to="E2277" arrivalPos="51"/>
               <ride from="E2277" to="E5103" lines="taxi"/>
           </person>
           <person id="35" depart="408.882000" color="yellow" departPos="58">
               <walk from="E2296" to="E2296" arrivalPos="58"/>
               <ride from="E2296" to="E5103" lines="taxi"/>
           </person>
           <person id="36" depart="410.274000" color="yellow" departPos="56">
               <walk from="E2489" to="E2489" arrivalPos="56"/>
               <ride from="E2489" to="E5103" lines="taxi"/>
           </person>
           <person id="37" depart="431.634000" color="yellow" departPos="67">
               <walk from="E1068" to="E1068" arrivalPos="67"/>
               <ride from="E1068" to="E5103" lines="taxi"/>
           </person>
           <person id="38" depart="437.412000" color="yellow" departPos="48">
               <walk from="E4910" to="E4910" arrivalPos="48"/>
               <ride from="E4910" to="E5103" lines="taxi"/>
           </person>
           <person id="39" depart="508.530000" color="yellow" departPos="54">
               <walk from="E479" to="E479" arrivalPos="54"/>
               <ride from="E479" to="E5103" lines="taxi"/>
           </person>
           <person id="40" depart="510.936000" color="yellow" departPos="40">
               <walk from="-E5103" to="-E5103" arrivalPos="40"/>
               <ride from="-E5103" to="E4912" lines="taxi"/>
           </person>
           <person id="41" depart="525.696000" color="yellow" departPos="54">
               <walk from="-E50" to="-E50" arrivalPos="54"/>
               <ride from="-E50" to="E5103" lines="taxi"/>
           </person>
           <person id="42" depart="526.350000" color="yellow" departPos="55">
               <walk from="E1276" to="E1276" arrivalPos="55"/>
               <ride from="E1276" to="E5103" lines="taxi"/>
           </person>
           <person id="43" depart="533.166000" color="yellow" departPos="50">
               <walk from="-E4972" to="-E4972" arrivalPos="50"/>
               <ride from="-E4972" to="E5103" lines="taxi"/>
           </person>
           <person id="44" depart="569.832000" color="yellow" departPos="48">
               <walk from="E398" to="E398" arrivalPos="48"/>
               <ride from="E398" to="E5103" lines="taxi"/>
           </person>
           <person id="45" depart="575.568000" color="yellow" departPos="65">
               <walk from="E4619" to="E4619" arrivalPos="65"/>
               <ride from="E4619" to="E5103" lines="taxi"/>
           </person>
           <person id="46" depart="590.898000" color="yellow" departPos="57">
               <walk from="E2561" to="E2561" arrivalPos="57"/>
               <ride from="E2561" to="E5103" lines="taxi"/>
           </person>
           <person id="47" depart="600.678000" color="yellow" departPos="66">
               <walk from="E5100" to="E5100" arrivalPos="66"/>
               <ride from="E5100" to="E5103" lines="taxi"/>
           </person>
           <person id="48" depart="603.930000" color="yellow" departPos="52">
               <walk from="-E2502" to="-E2502" arrivalPos="52"/>
               <ride from="-E2502" to="E5103" lines="taxi"/>
           </person>
           <person id="49" depart="607.740000" color="yellow" departPos="60">
               <walk from="-E4694" to="-E4694" arrivalPos="60"/>
               <ride from="-E4694" to="E5103" lines="taxi"/>
           </person>
           <person id="50" depart="629.310000" color="yellow" departPos="100">
               <walk from="-E5103" to="-E5103" arrivalPos="100"/>
               <ride from="-E5103" to="E1419" lines="taxi"/>
           </person>
           <person id="51" depart="633.954000" color="yellow" departPos="45">
               <walk from="E4956" to="E4956" arrivalPos="45"/>
               <ride from="E4956" to="E5103" lines="taxi"/>
           </person>
           <person id="52" depart="637.860000" color="yellow" departPos="48">
               <walk from="E3541" to="E3541" arrivalPos="48"/>
               <ride from="E3541" to="E5103" lines="taxi"/>
           </person>
           <person id="53" depart="649.776000" color="yellow" departPos="50">
               <walk from="E2316" to="E2316" arrivalPos="50"/>
               <ride from="E2316" to="E5103" lines="taxi"/>
           </person>
           <person id="54" depart="650.886000" color="yellow" departPos="42">
               <walk from="E2505" to="E2505" arrivalPos="42"/>
               <ride from="E2505" to="E5103" lines="taxi"/>
           </person>
           <person id="55" depart="660.594000" color="yellow" departPos="60">
               <walk from="-E4323" to="-E4323" arrivalPos="60"/>
               <ride from="-E4323" to="E5103" lines="taxi"/>
           </person>
           <person id="56" depart="663.114000" color="yellow" departPos="45">
               <walk from="E3063" to="E3063" arrivalPos="45"/>
               <ride from="E3063" to="E5103" lines="taxi"/>
           </person>
           <person id="57" depart="702.558000" color="yellow" departPos="48">
               <walk from="-E4360" to="-E4360" arrivalPos="48"/>
               <ride from="-E4360" to="E5103" lines="taxi"/>
           </person>
           <person id="58" depart="721.380000" color="yellow" departPos="43">
               <walk from="E2189" to="E2189" arrivalPos="43"/>
               <ride from="E2189" to="E5103" lines="taxi"/>
           </person>
           <person id="59" depart="728.472000" color="yellow" departPos="51">
               <walk from="E4408" to="E4408" arrivalPos="51"/>
               <ride from="E4408" to="E5103" lines="taxi"/>
           </person>
           <person id="60" depart="750.954000" color="yellow" departPos="40">
               <walk from="-E5103" to="-E5103" arrivalPos="40"/>
               <ride from="-E5103" to="E4967" lines="taxi"/>
           </person>
           <person id="61" depart="757.950000" color="yellow" departPos="61">
               <walk from="-E3636" to="-E3636" arrivalPos="61"/>
               <ride from="-E3636" to="E5103" lines="taxi"/>
           </person>
           <person id="62" depart="767.616000" color="yellow" departPos="41">
               <walk from="E5025" to="E5025" arrivalPos="41"/>
               <ride from="E5025" to="E5103" lines="taxi"/>
           </person>
           <person id="63" depart="782.358000" color="yellow" departPos="50">
               <walk from="-E4774" to="-E4774" arrivalPos="50"/>
               <ride from="-E4774" to="E5103" lines="taxi"/>
           </person>
           <person id="64" depart="805.086000" color="yellow" departPos="40">
               <walk from="E2323" to="E2323" arrivalPos="40"/>
               <ride from="E2323" to="E5103" lines="taxi"/>
           </person>
           <person id="65" depart="819.294000" color="yellow" departPos="58">
               <walk from="E1684" to="E1684" arrivalPos="58"/>
               <ride from="E1684" to="E5103" lines="taxi"/>
           </person>
           <person id="66" depart="822.156000" color="yellow" departPos="61">
               <walk from="-E2551" to="-E2551" arrivalPos="61"/>
               <ride from="-E2551" to="E5103" lines="taxi"/>
           </person>
           <person id="67" depart="865.164000" color="yellow" departPos="56">
               <walk from="E701" to="E701" arrivalPos="56"/>
               <ride from="E701" to="E5103" lines="taxi"/>
           </person>
           <person id="68" depart="865.434000" color="yellow" departPos="66">
               <walk from="E3057" to="E3057" arrivalPos="66"/>
               <ride from="E3057" to="E5103" lines="taxi"/>
           </person>
           <person id="69" depart="868.596000" color="yellow" departPos="47">
               <walk from="-E1996" to="-E1996" arrivalPos="47"/>
               <ride from="-E1996" to="E5103" lines="taxi"/>
           </person>
           <person id="70" depart="869.406000" color="yellow" departPos="80">
               <walk from="-E5103" to="-E5103" arrivalPos="80"/>
               <ride from="-E5103" to="E4681" lines="taxi"/>
           </person>
           <person id="71" depart="901.932000" color="yellow" departPos="63">
               <walk from="-E4218" to="-E4218" arrivalPos="63"/>
               <ride from="-E4218" to="E5103" lines="taxi"/>
           </person>
           <person id="72" depart="917.454000" color="yellow" departPos="58">
               <walk from="E2501" to="E2501" arrivalPos="58"/>
               <ride from="E2501" to="E5103" lines="taxi"/>
           </person>
           <person id="73" depart="940.758000" color="yellow" departPos="50">
               <walk from="E4370" to="E4370" arrivalPos="50"/>
               <ride from="E4370" to="E5103" lines="taxi"/>
           </person>
           <person id="74" depart="949.884000" color="yellow" departPos="61">
               <walk from="E4872" to="E4872" arrivalPos="61"/>
               <ride from="E4872" to="E5103" lines="taxi"/>
           </person>
           <person id="75" depart="959.928000" color="yellow" departPos="47">
               <walk from="-E2941" to="-E2941" arrivalPos="47"/>
               <ride from="-E2941" to="E5103" lines="taxi"/>
           </person>
           <person id="76" depart="964.992000" color="yellow" departPos="65">
               <walk from="E1420" to="E1420" arrivalPos="65"/>
               <ride from="E1420" to="E5103" lines="taxi"/>
           </person>
           <person id="77" depart="970.698000" color="yellow" departPos="41">
               <walk from="-E2601" to="-E2601" arrivalPos="41"/>
               <ride from="-E2601" to="E5103" lines="taxi"/>
           </person>
           <person id="78" depart="973.668000" color="yellow" departPos="57">
               <walk from="E1869" to="E1869" arrivalPos="57"/>
               <ride from="E1869" to="E5103" lines="taxi"/>
           </person>
           <person id="79" depart="1044.438000" color="yellow" departPos="54">
               <walk from="E5018" to="E5018" arrivalPos="54"/>
               <ride from="E5018" to="E5103" lines="taxi"/>
           </person>
           <person id="80" depart="1052.568000" color="yellow" departPos="40">
               <walk from="-E5103" to="-E5103" arrivalPos="40"/>
               <ride from="-E5103" to="-E4921" lines="taxi"/>
           </person>
           <person id="81" depart="1058.910000" color="yellow" departPos="42">
               <walk from="E5072" to="E5072" arrivalPos="42"/>
               <ride from="E5072" to="E5103" lines="taxi"/>
           </person>
           <person id="82" depart="1063.986000" color="yellow" departPos="63">
               <walk from="E2399" to="E2399" arrivalPos="63"/>
               <ride from="E2399" to="E5103" lines="taxi"/>
           </person>
           <person id="83" depart="1065.864000" color="yellow" departPos="67">
               <walk from="-E4805" to="-E4805" arrivalPos="67"/>
               <ride from="-E4805" to="E5103" lines="taxi"/>
           </person>
           <person id="84" depart="1075.128000" color="yellow" departPos="43">
               <walk from="E4118" to="E4118" arrivalPos="43"/>
               <ride from="E4118" to="E5103" lines="taxi"/>
           </person>
           <person id="85" depart="1090.398000" color="yellow" departPos="48">
               <walk from="-E2501" to="-E2501" arrivalPos="48"/>
               <ride from="-E2501" to="E5103" lines="taxi"/>
           </person>
           <person id="86" depart="1141.836000" color="yellow" departPos="43">
               <walk from="-E4771" to="-E4771" arrivalPos="43"/>
               <ride from="-E4771" to="E5103" lines="taxi"/>
           </person>
           <person id="87" depart="1193.646000" color="yellow" departPos="58">
               <walk from="E2567" to="E2567" arrivalPos="58"/>
               <ride from="E2567" to="E5103" lines="taxi"/>
           </person>
           <person id="88" depart="1204.038000" color="yellow" departPos="60">
               <walk from="E1989" to="E1989" arrivalPos="60"/>
               <ride from="E1989" to="E5103" lines="taxi"/>
           </person>
           <person id="89" depart="1209.192000" color="yellow" departPos="60">
               <walk from="-E5014" to="-E5014" arrivalPos="60"/>
               <ride from="-E5014" to="E5103" lines="taxi"/>
           </person>
           <person id="90" depart="1261.134000" color="yellow" departPos="40">
               <walk from="-E5103" to="-E5103" arrivalPos="40"/>
               <ride from="-E5103" to="-E1993" lines="taxi"/>
           </person>
           <person id="91" depart="1265.982000" color="yellow" departPos="51">
               <walk from="E2593" to="E2593" arrivalPos="51"/>
               <ride from="E2593" to="E5103" lines="taxi"/>
           </person>
           <person id="92" depart="1309.050000" color="yellow" departPos="52">
               <walk from="E2949" to="E2949" arrivalPos="52"/>
               <ride from="E2949" to="E5103" lines="taxi"/>
           </person>
           <person id="93" depart="1314.168000" color="yellow" departPos="51">
               <walk from="E2601" to="E2601" arrivalPos="51"/>
               <ride from="E2601" to="E5103" lines="taxi"/>
           </person>
           <person id="94" depart="1331.148000" color="yellow" departPos="42">
               <walk from="-E4063" to="-E4063" arrivalPos="42"/>
               <ride from="-E4063" to="E5103" lines="taxi"/>
           </person>
           <person id="95" depart="1333.896000" color="yellow" departPos="44">
               <walk from="-E1581" to="-E1581" arrivalPos="44"/>
               <ride from="-E1581" to="E5103" lines="taxi"/>
           </person>
           <person id="96" depart="1335.990000" color="yellow" departPos="53">
               <walk from="-E2982" to="-E2982" arrivalPos="53"/>
               <ride from="-E2982" to="E5103" lines="taxi"/>
           </person>
           <person id="97" depart="1357.068000" color="yellow" departPos="53">
               <walk from="E2298" to="E2298" arrivalPos="53"/>
               <ride from="E2298" to="E5103" lines="taxi"/>
           </person>
           <person id="98" depart="1362.264000" color="yellow" departPos="47">
               <walk from="-E465" to="-E465" arrivalPos="47"/>
               <ride from="-E465" to="E5103" lines="taxi"/>
           </person>
           <person id="99" depart="1374.990000" color="yellow" departPos="66">
               <walk from="E2293" to="E2293" arrivalPos="66"/>
               <ride from="E2293" to="E5103" lines="taxi"/>
           </person>
           <person id="100" depart="1424.052000" color="yellow" departPos="40">
               <walk from="-E5103" to="-E5103" arrivalPos="40"/>
               <ride from="-E5103" to="E4674" lines="taxi"/>
           </person>
           <person id="101" depart="1461.906000" color="yellow" departPos="63">
               <walk from="E5050" to="E5050" arrivalPos="63"/>
               <ride from="E5050" to="E5103" lines="taxi"/>
           </person>
           <person id="102" depart="1464.390000" color="yellow" departPos="64">
               <walk from="-E4802" to="-E4802" arrivalPos="64"/>
               <ride from="-E4802" to="E5103" lines="taxi"/>
           </person>
           <person id="103" depart="1479.216000" color="yellow" departPos="47">
               <walk from="E2364" to="E2364" arrivalPos="47"/>
               <ride from="E2364" to="E5103" lines="taxi"/>
           </person>
           <person id="104" depart="1496.016000" color="yellow" departPos="46">
               <walk from="-E378" to="-E378" arrivalPos="46"/>
               <ride from="-E378" to="E5103" lines="taxi"/>
           </person>
           <person id="105" depart="1496.556000" color="yellow" departPos="68">
               <walk from="E49" to="E49" arrivalPos="68"/>
               <ride from="E49" to="E5103" lines="taxi"/>
           </person>
           <person id="106" depart="1499.730000" color="yellow" departPos="55">
               <walk from="E5087" to="E5087" arrivalPos="55"/>
               <ride from="E5087" to="E5103" lines="taxi"/>
           </person>
           <person id="107" depart="1527.120000" color="yellow" departPos="47">
               <walk from="E4345" to="E4345" arrivalPos="47"/>
               <ride from="E4345" to="E5103" lines="taxi"/>
           </person>
           <person id="108" depart="1538.856000" color="yellow" departPos="57">
               <walk from="-E5041" to="-E5041" arrivalPos="57"/>
               <ride from="-E5041" to="E5103" lines="taxi"/>
           </person>
           <person id="109" depart="1540.524000" color="yellow" departPos="55">
               <walk from="-E4918" to="-E4918" arrivalPos="55"/>
               <ride from="-E4918" to="E5103" lines="taxi"/>
           </person>
           <person id="110" depart="1549.038000" color="yellow" departPos="40">
               <walk from="-E5103" to="-E5103" arrivalPos="40"/>
               <ride from="-E5103" to="E4962" lines="taxi"/>
           </person>
           <person id="111" depart="1560.648000" color="yellow" departPos="50">
               <walk from="E2187" to="E2187" arrivalPos="50"/>
               <ride from="E2187" to="E5103" lines="taxi"/>
           </person>
           <person id="112" depart="1561.248000" color="yellow" departPos="51">
               <walk from="E2580" to="E2580" arrivalPos="51"/>
               <ride from="E2580" to="E5103" lines="taxi"/>
           </person>
           <person id="113" depart="1562.076000" color="yellow" departPos="60">
               <walk from="-E509" to="-E509" arrivalPos="60"/>
               <ride from="-E509" to="E5103" lines="taxi"/>
           </person>
           <person id="114" depart="1571.448000" color="yellow" departPos="57">
               <walk from="-E1124" to="-E1124" arrivalPos="57"/>
               <ride from="-E1124" to="E5103" lines="taxi"/>
           </person>
           <person id="115" depart="1590.564000" color="yellow" departPos="40">
               <walk from="-E2662" to="-E2662" arrivalPos="40"/>
               <ride from="-E2662" to="E5103" lines="taxi"/>
           </person>
           <person id="116" depart="1595.154000" color="yellow" departPos="59">
               <walk from="E2598" to="E2598" arrivalPos="59"/>
               <ride from="E2598" to="E5103" lines="taxi"/>
           </person>
           <person id="117" depart="1600.212000" color="yellow" departPos="69">
               <walk from="E5089" to="E5089" arrivalPos="69"/>
               <ride from="E5089" to="E5103" lines="taxi"/>
           </person>
           <person id="118" depart="1601.388000" color="yellow" departPos="52">
               <walk from="E3911" to="E3911" arrivalPos="52"/>
               <ride from="E3911" to="E5103" lines="taxi"/>
           </person>
           <person id="119" depart="1609.374000" color="yellow" departPos="60">
               <walk from="-E4443" to="-E4443" arrivalPos="60"/>
               <ride from="-E4443" to="E5103" lines="taxi"/>
           </person>
           <person id="120" depart="1631.172000" color="yellow" departPos="40">
               <walk from="-E5103" to="-E5103" arrivalPos="40"/>
               <ride from="-E5103" to="-E2399" lines="taxi"/>
           </person>
           <person id="121" depart="1650.462000" color="yellow" departPos="57">
               <walk from="E5015" to="E5015" arrivalPos="57"/>
               <ride from="E5015" to="E5103" lines="taxi"/>
           </person>
           <person id="122" depart="1654.872000" color="yellow" departPos="58">
               <walk from="E594" to="E594" arrivalPos="58"/>
               <ride from="E594" to="E5103" lines="taxi"/>
           </person>
           <person id="123" depart="1664.514000" color="yellow" departPos="67">
               <walk from="-E629" to="-E629" arrivalPos="67"/>
               <ride from="-E629" to="E5103" lines="taxi"/>
           </person>
           <person id="124" depart="1676.100000" color="yellow" departPos="51">
               <walk from="E2403" to="E2403" arrivalPos="51"/>
               <ride from="E2403" to="E5103" lines="taxi"/>
           </person>
           <person id="125" depart="1681.410000" color="yellow" departPos="61">
               <walk from="E3195" to="E3195" arrivalPos="61"/>
               <ride from="E3195" to="E5103" lines="taxi"/>
           </person>
           <person id="126" depart="1691.910000" color="yellow" departPos="64">
               <walk from="-E2396" to="-E2396" arrivalPos="64"/>
               <ride from="-E2396" to="E5103" lines="taxi"/>
           </person>
           <person id="127" depart="1701.678000" color="yellow" departPos="56">
               <walk from="E837" to="E837" arrivalPos="56"/>
               <ride from="E837" to="E5103" lines="taxi"/>
           </person>
           <person id="128" depart="1714.482000" color="yellow" departPos="63">
               <walk from="-E2596" to="-E2596" arrivalPos="63"/>
               <ride from="-E2596" to="E5103" lines="taxi"/>
           </person>
           <person id="129" depart="1714.932000" color="yellow" departPos="59">
               <walk from="E4459" to="E4459" arrivalPos="59"/>
               <ride from="E4459" to="E5103" lines="taxi"/>
           </person>
           <person id="130" depart="1723.626000" color="yellow" departPos="100">
               <walk from="-E5103" to="-E5103" arrivalPos="100"/>
               <ride from="-E5103" to="-E3498" lines="taxi"/>
           </person>
           <person id="131" depart="1725.906000" color="yellow" departPos="45">
               <walk from="E4523" to="E4523" arrivalPos="45"/>
               <ride from="E4523" to="E5103" lines="taxi"/>
           </person>
           <person id="132" depart="1739.772000" color="yellow" departPos="58">
               <walk from="-E5072" to="-E5072" arrivalPos="58"/>