<?xml version="1.0" encoding="UTF-8"?>
           <routes xmlns:xsi="http://www.w3.org/2001/XMLSchema-instance" xsi:noNamespaceSchemaLocation="http://sumo.dlr.de/xsd/routes_file.xsd">
           <!-- Route -->
           <route edges="E0 E1 E2 E3 E4 -E11 -E10 -E8" color="yellow" id="route_0"/>
           <!-- Taxi-Type -->
           <vType id="taxi" vClass="taxi" personCapacity="5">
               <param key="has.taxi.device" value="true"/>
           </vType>
           <!-- People heading to the busstop -->
           <person id="1" depart="36.664000" color="yellow" departPos="45">
               <walk from="-E4961" to="-E4961" arrivalPos="45"/>
               <ride from="-E4961" to="E5103" lines="taxi"/>
           </person>
           <person id="2" depart="40.032000" color="yellow" departPos="64">
               <walk from="-E4134" to="-E4134" arrivalPos="64"/>
               <ride from="-E4134" to="E5103" lines="taxi"/>
           </person>
           <person id="3" depart="53.040000" color="yellow" departPos="60">
               <walk from="E2203" to="E2203" arrivalPos="60"/>
               <ride from="E2203" to="E5103" lines="taxi"/>
           </person>
           <person id="4" depart="98.496000" color="yellow" departPos="44">
               <walk from="-E2027" to="-E2027" arrivalPos="44"/>
               <ride from="-E2027" to="E5103" lines="taxi"/>
           </person>
           <person id="5" depart="101.864000" color="yellow" departPos="55">
               <walk from="-E2633" to="-E2633" arrivalPos="55"/>
               <ride from="-E2633" to="E5103" lines="taxi"/>
           </person>
           <person id="6" depart="103.536000" color="yellow" departPos="42">
               <walk from="E1968" to="E1968" arrivalPos="42"/>
               <ride from="E1968" to="E5103" lines="taxi"/>
           </person>
           <person id="7" depart="105.200000" color="yellow" departPos="48">
               <walk from="E3625" to="E3625" arrivalPos="48"/>
               <ride from="E3625" to="E5103" lines="taxi"/>
           </person>
           <person id="8" depart="131.920000" color="yellow" departPos="57">
               <walk from="-E800" to="-E800" arrivalPos="57"/>
               <ride from="-E800" to="E5103" lines="taxi"/>
           </person>
           <person id="9" depart="156.088000" color="yellow" departPos="54">
               <walk from="E984" to="E984" arrivalPos="54"/>
               <ride from="E984" to="E5103" lines="taxi"/>
           </person>
           <person id="10" depart="163.400000" color="yellow" departPos="80">
               <walk from="-E5103" to="-E5103" arrivalPos="80"/>
               <ride from="-E5103" to="-E4188" lines="taxi"/>
           </person>
           <person id="11" depart="168.200000" color="yellow" departPos="67">
               <walk from="-E2755" to="-E2755" arrivalPos="67"/>
               <ride from="-E2755" to="E5103" lines="taxi"/>
           </person>
           <person id="12" depart="178.016000" color="yellow" departPos="59">
               <walk from="-E366" to="-E366" arrivalPos="59"/>
               <ride from="-E366" to="E5103" lines="taxi"/>
           </person>
           <person id="13" depart="181.224000" color="yellow" departPos="40">
               <walk from="E4377" to="E4377" arrivalPos="40"/>
               <ride from="E4377" to="E5103" lines="taxi"/>
           </person>
           <person id="14" depart="232.728000" color="yellow" departPos="61">
               <walk from="E1391" to="E1391" arrivalPos="61"/>
               <ride from="E1391" to="E5103" lines="taxi"/>
           </person>
           <person id="15" depart="235.616000" color="yellow" departPos="41">
               <walk from="-E2417" to="-E2417" arrivalPos="41"/>
               <ride from="-E2417" to="E5103" lines="taxi"/>
           </person>
           <person id="16" depart="249.664000" color="yellow" departPos="59">
               <walk from="E1231" to="E1231" arrivalPos="59"/>
               <ride from="E1231" to="E5103" lines="taxi"/>
           </person>
           <person id="17" depart="255.368000" color="yellow" departPos="48">
               <walk from="E4861" to="E4861" arrivalPos="48"/>
               <ride from="E4861" to="E5103" lines="taxi"/>
           </person>
           <person id="18" depart="262.896000" color="yellow" departPos="55">
               <walk from="E2549" to="E2549" arrivalPos="55"/>
               <ride from="E2549" to="E5103" lines="taxi"/>
           </person>
           <person id="19" depart="289.488000" color="yellow" departPos="56">
               <walk from="E1838" to="E1838" arrivalPos="56"/>
               <ride from="E1838" to="E5103" lines="taxi"/>
           </person>
           <person id="20" depart="327.640000" color="yellow" departPos="40">
               <walk from="-E5103" to="-E5103" arrivalPos="40"/>
               <ride from="-E5103" to="-E5098" lines="taxi"/>
           </person>
           <person id="21" depart="341.968000" color="yellow" departPos="60">
               <walk from="E411" to="E411" arrivalPos="60"/>
               <ride from="E411" to="E5103" lines="taxi"/>
           </person>
           <person id="22" depart="342.240000" color="yellow" departPos="45">
               <walk from="E2154" to="E2154" arrivalPos="45"/>
               <ride from="E2154" to="E5103" lines="taxi"/>
           </person>
           <person id="23" depart="351.528000" color="yellow" departPos="58">
               <walk from="E4147" to="E4147" arrivalPos="58"/>
               <ride from="E4147" to="E5103" lines="taxi"/>
           </person>
           <person id="24" depart="364.368000" color="yellow" departPos="44">
               <walk from="E3638" to="E3638" arrivalPos="44"/>
               <ride from="E3638" to="E5103" lines="taxi"/>
           </person>
           <person id="25" depart="394.568000" color="yellow" departPos="51">
               <walk from="-E3451" to="-E3451" arrivalPos="51"/>
               <ride from="-E3451" to="E5103" lines="taxi"/>
           </person>
           <person id="26" depart="414.552000" color="yellow" departPos="60">
               <walk from="E3994" to="E3994" arrivalPos="60"/>
               <ride from="E3994" to="E5103" lines="taxi"/>
           </person>
           <person id="27" depart="420.560000" color="yellow" departPos="56">
               <walk from="E642" to="E642" arrivalPos="56"/>
               <ride from="E642" to="E5103" lines="taxi"/>
           </person>
           <person id="28" depart="423.144000" color="yellow" departPos="48">
               <walk from="-E587" to="-E587" arrivalPos="48"/>
               <ride from="-E587" to="E5103" lines="taxi"/>
           </person>
           <person id="29" depart="441.320000" color="yellow" departPos="42">
               <walk from="-E356" to="-E356" arrivalPos="42"/>
               <ride from="-E356" to="E5103" lines="taxi"/>
           </person>
           <person id="30" depart="483.000000" color="yellow" departPos="60">
               <walk from="-E5103" to="-E5103" arrivalPos="60"/>
               <ride from="-E5103" to="-E3464" lines="taxi"/>
           </person>
           <person id="31" depart="502.296000" color="yellow" departPos="65">
               <walk from="E3146" to="E3146" arrivalPos="65"/>
               <ride from="E3146" to="E5103" lines="taxi"/>
           </person>
           <person id="32" depart="532.640000" color="yellow" departPos="42">
               <walk from="-E1425" to="-E1425" arrivalPos="42"/>
               <ride from="-E1425" to="E5103" lines="taxi"/>
           </person>
           <person id="33" depart="541.992000" color="yellow" departPos="50">
               <walk from="E3187" to="E3187" arrivalPos="50"/>
               <ride from="E3187" to="E5103" lines="taxi"/>
           </person>
           <person id="34" depart="571.376000" color="yellow" departPos="47">
               <walk from="-E1541" to="-E1541" arrivalPos="47"/>
               <ride from="-E1541" to="E5103" lines="taxi"/>
           </person>
           <person id="35" depart="580.792000" color="yellow" departPos="55">
               <walk from="E1876" to="E1876" arrivalPos="55"/>
               <ride from="E1876" to="E5103" lines="taxi"/>
           </person>
           <person id="36" depart="586.360000" color="yellow" departPos="54">
               <walk from="E5093" to="E5093" arrivalPos="54"/>
               <ride from="E5093" to="E5103" lines="taxi"/>
           </person>
           <person id="37" depart="606.592000" color="yellow" departPos="60">
               <walk from="-E184" to="-E184" arrivalPos="60"/>
               <ride from="-E184" to="E5103" lines="taxi"/>
           </person>
           <person id="38" depart="613.648000" color="yellow" departPos="46">
               <walk from="E1599" to="E1599" arrivalPos="46"/>
               <ride from="E1599" to="E5103" lines="taxi"/>
           </person>
           <person id="39" depart="613.888000" color="yellow" departPos="62">
               <walk from="-E3288" to="-E3288" arrivalPos="62"/>
               <ride from="-E3288" to="E5103" lines="taxi"/>
           </person>
           <person id="40" depart="619.768000" color="yellow" departPos="80">
               <walk from="-E5103" to="-E5103" arrivalPos="80"/>
               <ride from="-E5103" to="-E4631" lines="taxi"/>
           </person>
           <person id="41" depart="706.280000" color="yellow" departPos="52">
               <walk from="-E1629" to="-E1629" arrivalPos="52"/>
               <ride from="-E1629" to="E5103" lines="taxi"/>
           </person>
           <person id="42" depart="741.968000" color="yellow" departPos="55">
               <walk from="-E4767" to="-E4767" arrivalPos="55"/>
               <ride from="-E4767" to="E5103" lines="taxi"/>
           </person>
           <person id="43" depart="743.912000" color="yellow" departPos="55">
               <walk from="-E3126" to="-E3126" arrivalPos="55"/>
               <ride from="-E3126" to="E5103" lines="taxi"/>
           </person>
           <person id="44" depart="759.176000" color="yellow" departPos="49">
               <walk from="-E1038" to="-E1038" arrivalPos="49"/>
               <ride from="-E1038" to="E5103" lines="taxi"/>
           </person>
           <person id="45" depart="832.680000" color="yellow" departPos="52">
               <walk from="-E3973" to="-E3973" arrivalPos="52"/>
               <ride from="-E3973" to="E5103" lines="taxi"/>
           </person>
           <person id="46" depart="835.960000" color="yellow" departPos="49">
               <walk from="E2109" to="E2109" arrivalPos="49"/>
               <ride from="E2109" to="E5103" lines="taxi"/>
           </person>
           <person id="47" depart="838.088000" color="yellow" departPos="60">
               <walk from="E1467" to="E1467" arrivalPos="60"/>
               <ride from="E1467" to="E5103" lines="taxi"/>
           </person>
           <person id="48" depart="865.992000" color="yellow" departPos="60">
               <walk from="-E914" to="-E914" arrivalPos="60"/>
               <ride from="-E914" to="E5103" lines="taxi"/>
           </person>
           <person id="49" depart="873.968000" color="yellow" departPos="44">
               <walk from="-E1501" to="-E1501" arrivalPos="44"/>
               <ride from="-E1501" to="E5103" lines="taxi"/>
           </person>
           <person id="50" depart="882.832000" color="yellow" departPos="40">
               <walk from="-E5103" to="-E5103" arrivalPos="40"/>
               <ride from="-E5103" to="-E4115" lines="taxi"/>
           </person>
           <person id="51" depart="916.568000" color="yellow" departPos="43">
               <walk from="E123" to="E123" arrivalPos="43"/>
               <ride from="E123" to="E5103" lines="taxi"/>
           </person>
           <person id="52" depart="919.984000" color="yellow" departPos="47">
               <walk from="E4884" to="E4884" arrivalPos="47"/>
               <ride from="E4884" to="E5103" lines="taxi"/>
           </person>
           <person id="53" depart="924.136000" color="yellow" departPos="57">
               <walk from="E1797" to="E1797" arrivalPos="57"/>
               <ride from="E1797" to="E5103" lines="taxi"/>
           </person>
           <person id="54" depart="969.848000" color="yellow" departPos="56">
               <walk from="-E3922" to="-E3922" arrivalPos="56"/>
               <ride from="-E3922" to="E5103" lines="taxi"/>
           </person>
           <person id="55" depart="978.344000" color="yellow" departPos="63">
               <walk from="E211" to="E211" arrivalPos="63"/>
               <ride from="E211" to="E5103" lines="taxi"/>
           </person>
           <person id="56" depart="1002.776000" color="yellow" departPos="67">
               <walk from="-E1352" to="-E1352" arrivalPos="67"/>
               <ride from="-E1352" to="E5103" lines="taxi"/>
           </person>
           <person id="57" depart="1022.112000" color="yellow" departPos="65">
               <walk from="-E4174" to="-E4174" arrivalPos="65"/>
               <ride from="-E4174" to="E5103" lines="taxi"/>
           </person>
           <person id="58" depart="1039.816000" color="yellow" departPos="69">
               <walk from="E3216" to="E3216" arrivalPos="69"/>
               <ride from="E3216" to="E5103" lines="taxi"/>
           </person>
           <person id="59" depart="1046.240000" color="yellow" departPos="64">
               <walk from="-E2800" to="-E2800" arrivalPos="64"/>
               <ride from="-E2800" to="E5103" lines="taxi"/>
           </person>
           <person id="60" depart="1061.496000" color="yellow" departPos="60">
               <walk from="-E5103" to="-E5103" arrivalPos="60"/>
               <ride from="-E5103" to="E3010" lines="taxi"/>
           </person>
           <person id="61" depart="1066.344000" color="yellow" departPos="44">
               <walk from="E658" to="E658" arrivalPos="44"/>
               <ride from="E658" to="E5103" lines="taxi"/>
           </person>
           <person id="62" depart="1067.592000" color="yellow" departPos="53">
               <walk from="-E873" to="-E873" arrivalPos="53"/>
               <ride from="-E873" to="E5103" lines="taxi"/>
           </person>
           <person id="63" depart="1086.768000" color="yellow" departPos="55">
               <walk from="E1779" to="E1779" arrivalPos="55"/>
               <ride from="E1779" to="E5103" lines="taxi"/>
           </person>
           <person id="64" depart="1096.776000" color="yellow" departPos="42">
               <walk from="E4402" to="E4402" arrivalPos="42"/>
               <ride from="E4402" to="E5103" lines="taxi"/>
           </person>
           <person id="65" depart="1114.880000" color="yellow" departPos="67">
               <walk from="E3533" to="E3533" arrivalPos="67"/>
               <ride from="E3533" to="E5103" lines="taxi"/>
           </person>
           <person id="66" depart="1156.056000" color="yellow" departPos="54">
               <walk from="E1191" to="E1191" arrivalPos="54"/>
               <ride from="E1191" to="E5103" lines="taxi"/>
           </person>
           <person id="67" depart="1177.192000" color="yellow" departPos="48">
               <walk from="E1462" to="E1462" arrivalPos="48"/>
               <ride from="E1462" to="E5103" lines="taxi"/>
           </person>
           <person id="68" depart="1185.960000" color="yellow" departPos="58">
               <walk from="E4108" to="E4108" arrivalPos="58"/>
               <ride from="E4108" to="E5103" lines="taxi"/>
           </person>
           <person id="69" depart="1189.000000" color="yellow" departPos="65">
               <walk from="-E4787" to="-E4787" arrivalPos="65"/>
               <ride from="-E4787" to="E5103" lines="taxi"/>
           </person>
           <person id="70" depart="1191.976000" color="yellow" departPos="100">
               <walk from="-E5103" to="-E5103" arrivalPos="100"/>
               <ride from="-E5103" to="-E3778" lines="taxi"/>
           </person>
           <person id="71" depart="1198.064000" color="yellow" departPos="45">
               <walk from="E4251" to="E4251" arrivalPos="45"/>
               <ride from="E4251" to="E5103" lines="taxi"/>
           </person>
           <person id="72" depart="1206.608000" color="yellow" departPos="49">
               <walk from="E664" to="E664" arrivalPos="49"/>
               <ride from="E664" to="E5103" lines="taxi"/>
           </person>
           <person id="73" depart="1220.928000" color="yellow" departPos="65">
               <walk from="E705" to="E705" arrivalPos="65"/>
               <ride from="E705" to="E5103" lines="taxi"/>
           </person>
           <person id="74" depart="1239.768000" color="yellow" departPos="58">
               <walk from="E2495" to="E2495" arrivalPos="58"/>
               <ride from="E2495" to="E5103" lines="taxi"/>
           </person>
           <person id="75" depart="1263.704000" color="yellow" departPos="61">
               <walk from="-E1428" to="-E1428" arrivalPos="61"/>
               <ride from="-E1428" to="E5103" lines="taxi"/>
           </person>
           <person id="76" depart="1275.448000" color="yellow" departPos="45">
               <walk from="-E719" to="-E719" arrivalPos="45"/>
               <ride from="-E719" to="E5103" lines="taxi"/>
           </person>
           <person id="77" depart="1280.160000" color="yellow" departPos="65">
               <walk from="-E2703" to="-E2703" arrivalPos="65"/>
               <ride from="-E2703" to="E5103" lines="taxi"/>
           </person>
           <person id="78" depart="1280.520000" color="yellow" departPos="55">
               <walk from="-E2306" to="-E2306" arrivalPos="55"/>
               <ride from="-E2306" to="E5103" lines="taxi"/>
           </person>
           <person id="79" depart="1356.048000" color="yellow" departPos="61">
               <walk from="E2506" to="E2506" arrivalPos="61"/>
               <ride from="E2506" to="E5103" lines="taxi"/>
           </person>
           <person id="80" depart="1369.760000" color="yellow" departPos="40">
               <walk from="-E5103" to="-E5103" arrivalPos="40"/>
               <ride from="-E5103" to="E4065" lines="taxi"/>
           </person>
           <person id="81" depart="1375.008000" color="yellow" departPos="51">
               <walk from="-E369" to="-E369" arrivalPos="51"/>
               <ride from="-E369" to="E5103" lines="taxi"/>
           </person>
           <person id="82" depart="1383.144000" color="yellow" departPos="45">
               <walk from="-E2880" to="-E2880" arrivalPos="45"/>
               <ride from="-E2880" to="E5103" lines="taxi"/>
           </person>
           <person id="83" depart="1404.920000" color="yellow" departPos="64">
               <walk from="-E1524" to="-E1524" arrivalPos="64"/>
               <ride from="-E1524" to="E5103" lines="taxi"/>
           </person>
           <person id="84" depart="1425.008000" color="yellow" departPos="42">
               <walk from="E3185" to="E3185" arrivalPos="42"/>
               <ride from="E3185" to="E5103" lines="taxi"/>
           </person>
           <person id="85" depart="1455.808000" color="yellow" departPos="48">
               <walk from="E2546" to="E2546" arrivalPos="48"/>
               <ride from="E2546" to="E5103" lines="taxi"/>
           </person>
           <person id="86" depart="1467.072000" color="yellow" departPos="50">
               <walk from="-E2193" to="-E2193" arrivalPos="50"/>
               <ride from="-E2193" to="E5103" lines="taxi"/>
           </person>
           <person id="87" depart="1479.072000" color="yellow" departPos="49">
               <walk from="E1606" to="E1606" arrivalPos="49"/>
               <ride from="E1606" to="E5103" lines="taxi"/>
           </person>
           <person id="88" depart="1484.768000" color="yellow" departPos="58">
               <walk from="E5099" to="E5099" arrivalPos="58"/>
               <ride from="E5099" to="E5103" lines="taxi"/>
           </person>
           <person id="89" depart="1493.296000" color="yellow" departPos="52">
               <walk from="-E248" to="-E248" arrivalPos="52"/>
               <ride from="-E248" to="E5103" lines="taxi"/>
           </person>
           <person id="90" depart="1511.688000" color="yellow" departPos="40">
               <walk from="-E5103" to="-E5103" arrivalPos="40"/>
               <ride from="-E5103" to="E5016" lines="taxi"/>
           </person>
           <person id="91" depart="1528.008000" color="yellow" departPos="49">
               <walk from="E1817" to="E1817" arrivalPos="49"/>
               <ride from="E1817" to="E5103" lines="taxi"/>
           </person>
           <person id="92" depart="1567.464000" color="yellow" departPos="56">
               <walk from="E1671" to="E1671" arrivalPos="56"/>
               <ride from="E1671" to="E5103" lines="taxi"/>
           </person>
           <person id="93" depart="1587.704000" color="yellow" departPos="56">
               <walk from="-E3442" to="-E3442" arrivalPos="56"/>
               <ride from="-E3442" to="E5103" lines="taxi"/>
           </person>
           <person id="94" depart="1628.248000" color="yellow" departPos="60">
               <walk from="E2740" to="E2740" arrivalPos="60"/>
               <ride from="E2740" to="E5103" lines="taxi"/>
           </person>
           <person id="95" depart="1659.120000" color="yellow" departPos="65">
               <walk from="-E1441" to="-E1441" arrivalPos="65"/>
               <ride from="-E1441" to="E5103" lines="taxi"/>
           </person>
           <person id="96" depart="1672.160000" color="yellow" departPos="57">
               <walk from="E2020" to="E2020" arrivalPos="57"/>
               <ride from="E2020" to="E5103" lines="taxi"/>
           </person>
           <person id="97" depart="1672.512000" color="yellow" departPos="65">
               <walk from="E2400" to="E2400" arrivalPos="65"/>
               <ride from="E2400" to="E5103" lines="taxi"/>
           </person>
           <person id="98" depart="1688.256000" color="yellow" departPos="65">
               <walk from="-E4770" to="-E4770" arrivalPos="65"/>
               <ride from="-E4770" to="E5103" lines="taxi"/>
           </person>
           <person id="99" depart="1698.984000" color="yellow" departPos="52">
               <walk from="E3218" to="E3218" arrivalPos="52"/>
               <ride from="E3218" to="E5103" lines="taxi"/>
           </person>
           <person id="100" depart="1703.384000" color="yellow" departPos="100">
               <walk from="-E5103" to="-E5103" arrivalPos="100"/>
               <ride from="-E5103" to="-E2915" lines="taxi"/>
           </person>
           <person id="101" depart="1717.232000" color="yellow" departPos="69">
               <walk from="-E230" to="-E230" arrivalPos="69"/>
               <ride from="-E230" to="E5103" lines="taxi"/>
           </person>
           <person id="102" depart="1719.760000" color="yellow" departPos="52">
               <walk from="-E1337" to="-E1337" arrivalPos="52"/>
               <ride from="-E1337" to="E5103" lines="taxi"/>
           </person>
           <person id="103" depart="1719.936000" color="yellow" departPos="64">
               <walk from="E2496" to="E2496" arrivalPos="64"/>
               <ride from="E2496" to="E5103" lines="taxi"/>
           </person>
           <person id="104" depart="1733.760000" color="yellow" departPos="48">
               <walk from="-E3127" to="-E3127" arrivalPos="48"/>
               <ride from="-E3127" to="E5103" lines="taxi"/>
           </person>
           <person id="105" depart="1752.880000" color="yellow" departPos="41">
               <walk from="-E2025" to="-E2025" arrivalPos="41"/>
               <ride from="-E2025" to="E5103" lines="taxi"/>
           </person>
           <person id="106" depart="1763.496000" color="yellow" departPos="68">
               <walk from="-E690" to="-E690" arrivalPos="68"/>
               <ride from="-E690" to="E5103" lines="taxi"/>
           </person>
           <person id="107" depart="1766.304000" color="yellow" departPos="61">
               <walk from="-E4636" to="-E4636" arrivalPos="61"/>
               <ride from="-E4636" to="E5103" lines="taxi"/>
           </person>
           <person id="108" depart="1787.600000" color="yellow" departPos="55">
               <walk from="E1699" to="E1699" arrivalPos="55"/>
               <ride from="E1699" to="E5103" lines="taxi"/>
           </person>
           <person id="109" depart="1799.064000" color="yellow" departPos="60">
               <walk from="-E469" to="-E469" arrivalPos="60"/>
               <ride from="-E469" to="E5103" lines="taxi"/>
           </person>
           <person id="110" depart="1818.592000" color="yellow" departPos="100">
               <walk from="-E5103" to="-E5103" arrivalPos="100"/>
               <ride from="-E5103" to="-E3483" lines="taxi"/>
           </person>
           <person id="111" depart="1830.472000" color="yellow" departPos="49">
               <walk from="E1741" to="E1741" arrivalPos="49"/>
               <ride from="E1741" to="E5103" lines="taxi"/>
           </person>
           <person id="112" depart="1845.592000" color="yellow" departPos="61">
               <walk from="E1364" to="E1364" arrivalPos="61"/>
               <ride from="E1364" to="E5103" lines="taxi"/>
           </person>
           <person id="113" depart="1875.144000" color="yellow" departPos="48">
               <walk from="E3526" to="E3526" arrivalPos="48"/>
               <ride from="E3526" to="E5103" lines="taxi"/>
           </person>
           <person id="114" depart="1897.496000" color="yellow" departPos="69">
               <walk from="E1010" to="E1010" arrivalPos="69"/>
               <ride from="E1010" to="E5103" lines="taxi"/>
           </person>
           <person id="115" depart="1924.896000" color="yellow" departPos="46">
               <walk from="-E1018" to="-E1018" arrivalPos="46"/>
               <ride from="-E1018" to="E5103" lines="taxi"/>
           </person>
           <person id="116" depart="1939.488000" color="yellow" departPos="54">
               <walk from="-E205" to="-E205" arrivalPos="54"/>
               <ride from="-E205" to="E5103" lines="taxi"/>
           </person>
           <person id="117" depart="1952.960000" color="yellow" departPos="42">
               <walk from="E4920" to="E4920" arrivalPos="42"/>
               <ride from="E4920" to="E5103" lines="taxi"/>
           </person>
           <person id="118" depart="1972.136000" color="yellow" departPos="67">
               <walk from="E5021" to="E5021" arrivalPos="67"/>
               <ride from="E5021" to="E5103" lines="taxi"/>
           </person>
           <person id="119" depart="1973.424000" color="yellow" departPos="48">
               <walk from="E2300" to="E2300" arrivalPos="48"/>
               <ride from="E2300" to="E5103" lines="taxi"/>
           </person>
           <person id="120" depart="1982.616000" color="yellow" departPos="60">
               <walk from="-E5103" to="-E5103" arrivalPos="60"/>
               <ride from="-E5103" to="-E3153" lines="taxi"/>
           </person>
           <person id="121" depart="2005.376000" color="yellow" departPos="47">
               <walk from="E4790" to="E4790" arrivalPos="47"/>
               <ride from="E4790" to="E5103" lines="taxi"/>
           </person>
           <person id="122" depart="2012.240000" color="yellow" departPos="43">
               <walk from="E790" to="E790" arrivalPos="43"/>
               <ride from="E790" to="E5103" lines="taxi"/>
           </person>
           <person id="123" depart="2053.176000" color="yellow" departPos="62">
               <walk from="E2374" to="E2374" arrivalPos="62"/>
               <ride from="E2374" to="E5103" lines="taxi"/>
           </person>
           <person id="124" depart="2077.312000" color="yellow" departPos="48">
               <walk from="E1035" to="E1035" arrivalPos="48"/>
               <ride from="E1035" to="E5103" lines="taxi"/>
           </person>
           <person id="125" depart="2084.056000" color="yellow" departPos="45">
               <walk from="-E920" to="-E920" arrivalPos="45"/>
               <ride from="-E920" to="E5103" lines="taxi"/>
           </person>
           <person id="126" depart="2092.376000" color="yellow" departPos="58">
               <walk from="-E3991" to="-E3991" arrivalPos="58"/>
               <ride from="-E3991" to="E5103" lines="taxi"/>
           </person>
           <person id="127" depart="2120.336000" color="yellow" departPos="43">
               <walk from="-E4159" to="-E4159" arrivalPos="43"/>
               <ride from="-E4159" to="E5103" lines="taxi"/>
           </person>
           <person id="128" depart="2121.744000" color="yellow" departPos="55">
               <walk from="E2295" to="E2295" arrivalPos="55"/>
               <ride from="E2295" to="E5103" lines="taxi"/>
           </person>
           <person id="129" depart="2124.200000" color="yellow" departPos="65">
               <walk from="-E3947" to="-E3947" arrivalPos="65"/>
               <ride from="-E3947" to="E5103" lines="taxi"/>
           </person>
           <person id="130" depart="2129.480000" color="yellow" departPos="80">
               <walk from="-E5103" to="-E5103" arrivalPos="80"/>
               <ride from="-E5103" to="-E561" lines="taxi"/>
           </person>
           <person id="131" depart="2143.600000" color="yellow" departPos="41">
               <walk from="E376" to="E376" arrivalPos="41"/>
               <ride from="E376" to="E5103" lines="taxi"/>
           </person>
           <person id="132" depart="2162.656000" color="yellow" departPos="65">
               <walk from="E2199" to="E2199" arrivalPos="65"/>