<?xml version="1.0" encoding="UTF-8"?>
           <routes xmlns:xsi="http://www.w3.org/2001/XMLSchema-instance" xsi:noNamespaceSchemaLocation="http://sumo.dlr.de/xsd/routes_file.xsd">
           <!-- Route -->
           <route edges="E0 E1 E2 E3 E4 -E11 -E10 -E8" color="yellow" id="route_0"/>
           <!-- Taxi-Type -->
           <vType id="taxi" vClass="taxi" personCapacity="5">
               <param key="has.taxi.device" value="true"/>
           </vType>
           <!-- People heading to the busstop -->
           <person id="1" depart="6.084000" color="yellow" departPos="65">
               <walk from="-E2403" to="-E2403" arrivalPos="65"/>
               <ride from="-E2403" to="E5103" lines="taxi"/>
           </person>
           <person id="2" depart="17.544000" color="yellow" departPos="44">
               <walk from="E5011" to="E5011" arrivalPos="44"/>
               <ride from="E5011" to="E5103" lines="taxi"/>
           </person>
           <person id="3" depart="19.092000" color="yellow" departPos="60">
               <walk from="-E5099" to="-E5099" arrivalPos="60"/>
               <ride from="-E5099" to="E5103" lines="taxi"/>
           </person>
           <person id="4" depart="43.788000" color="yellow" departPos="44">
               <walk from="-E1791" to="-E1791" arrivalPos="44"/>
               <ride from="-E1791" to="E5103" lines="taxi"/>
           </person>
           <person id="5" depart="59.448000" color="yellow" departPos="59">
               <walk from="E2381" to="E2381" arrivalPos="59"/>
               <ride from="E2381" to="E5103" lines="taxi"/>
           </person>
           <person id="6" depart="98.808000" color="yellow" departPos="62">
               <walk from="-E1004" to="-E1004" arrivalPos="62"/>
               <ride from="-E1004" to="E5103" lines="taxi"/>
           </person>
           <person id="7" depart="125.892000" color="yellow" departPos="42">
               <walk from="E1003" to="E1003" arrivalPos="42"/>
               <ride from="E1003" to="E5103" lines="taxi"/>
           </person>
           <person id="8" depart="152.676000" color="yellow" departPos="42">
               <walk from="E3042" to="E3042" arrivalPos="42"/>
               <ride from="E3042" to="E5103" lines="taxi"/>
           </person>
           <person id="9" depart="181.968000" color="yellow" departPos="43">
               <walk from="E2411" to="E2411" arrivalPos="43"/>
               <ride from="E2411" to="E5103" lines="taxi"/>
           </person>
           <person id="10" depart="198.120000" color="yellow" departPos="80">
               <walk from="-E5103" to="-E5103" arrivalPos="80"/>
               <ride from="-E5103" to="-E744" lines="taxi"/>
           </person>
           <person id="11" depart="242.760000" color="yellow" departPos="66">
               <walk from="E4727" to="E4727" arrivalPos="66"/>
               <ride from="E4727" to="E5103" lines="taxi"/>
           </person>
           <person id="12" depart="296.976000" color="yellow" departPos="58">
               <walk from="-E2503" to="-E2503" arrivalPos="58"/>
               <ride from="-E2503" to="E5103" lines="taxi"/>
           </person>
           <person id="13" depart="387.396000" color="yellow" departPos="54">
               <walk from="-E2638" to="-E2638" arrivalPos="54"/>
               <ride from="-E2638" to="E5103" lines="taxi"/>
           </person>
           <person id="14" depart="403.008000" color="yellow" departPos="46">
               <walk from="-E2212" to="-E2212" arrivalPos="46"/>
               <ride from="-E2212" to="E5103" lines="taxi"/>
           </person>
           <person id="15" depart="424.656000" color="yellow" departPos="61">
               <walk from="-E1171" to="-E1171" arrivalPos="61"/>
               <ride from="-E1171" to="E5103" lines="taxi"/>
           </person>
           <person id="16" depart="427.620000" color="yellow" departPos="41">
               <walk from="E2507" to="E2507" arrivalPos="41"/>
               <ride from="E2507" to="E5103" lines="taxi"/>
           </person>
           <person id="17" depart="431.964000" color="yellow" departPos="61">
               <walk from="-E5025" to="-E5025" arrivalPos="61"/>
               <ride from="-E5025" to="E5103" lines="taxi"/>
           </person>
           <person id="18" depart="453.624000" color="yellow" departPos="53">
               <walk from="-E648" to="-E648" arrivalPos="53"/>
               <ride from="-E648" to="E5103" lines="taxi"/>
           </person>
           <person id="19" depart="462.624000" color="yellow" departPos="43">
               <walk from="E4553" to="E4553" arrivalPos="43"/>
               <ride from="E4553" to="E5103" lines="taxi"/>
           </person>
           <person id="20" depart="481.308000" color="yellow" departPos="40">
               <walk from="-E5103" to="-E5103" arrivalPos="40"/>
               <ride from="-E5103" to="E4368" lines="taxi"/>
           </person>
           <person id="21" depart="503.952000" color="yellow" departPos="51">
               <walk from="E4823" to="E4823" arrivalPos="51"/>
               <ride from="E4823" to="E5103" lines="taxi"/>
           </person>
           <person id="22" depart="547.308000" color="yellow" departPos="69">
               <walk from="E1898" to="E1898" arrivalPos="69"/>
               <ride from="E1898" to="E5103" lines="taxi"/>
           </person>
           <person id="23" depart="573.252000" color="yellow" departPos="40">
               <walk from="E4566" to="E4566" arrivalPos="40"/>
               <ride from="E4566" to="E5103" lines="taxi"/>
           </person>
           <person id="24" depart="599.256000" color="yellow" departPos="53">
               <walk from="E2584" to="E2584" arrivalPos="53"/>
               <ride from="E2584" to="E5103" lines="taxi"/>
           </person>
           <person id="25" depart="606.660000" color="yellow" departPos="56">
               <walk from="-E1464" to="-E1464" arrivalPos="56"/>
               <ride from="-E1464" to="E5103" lines="taxi"/>
           </person>
           <person id="26" depart="644.592000" color="yellow" departPos="68">
               <walk from="E2307" to="E2307" arrivalPos="68"/>
               <ride from="E2307" to="E5103" lines="taxi"/>
           </person>
           <person id="27" depart="652.368000" color="yellow" departPos="65">
               <walk from="E1882" to="E1882" arrivalPos="65"/>
               <ride from="E1882" to="E5103" lines="taxi"/>
           </person>
           <person id="28" depart="690.276000" color="yellow" departPos="56">
               <walk from="E5058" to="E5058" arrivalPos="56"/>
               <ride from="E5058" to="E5103" lines="taxi"/>
           </person>
           <person id="29" depart="700.272000" color="yellow" departPos="67">
               <walk from="E2592" to="E2592" arrivalPos="67"/>
               <ride from="E2592" to="E5103" lines="taxi"/>
           </person>
           <person id="30" depart="730.548000" color="yellow" departPos="80">
               <walk from="-E5103" to="-E5103" arrivalPos="80"/>
               <ride from="-E5103" to="E4732" lines="taxi"/>
           </person>
           <person id="31" depart="737.568000" color="yellow" departPos="48">
               <walk from="-E4716" to="-E4716" arrivalPos="48"/>
               <ride from="-E4716" to="E5103" lines="taxi"/>
           </person>
           <person id="32" depart="765.204000" color="yellow" departPos="53">
               <walk from="E5068" to="E5068" arrivalPos="53"/>
               <ride from="E5068" to="E5103" lines="taxi"/>
           </person>
           <person id="33" depart="784.680000" color="yellow" departPos="54">
               <walk from="E4913" to="E4913" arrivalPos="54"/>
               <ride from="E4913" to="E5103" lines="taxi"/>
           </person>
           <person id="34" depart="791.112000" color="yellow" departPos="51">
               <walk from="E2277" to="E2277" arrivalPos="51"/>
               <ride from="E2277" to="E5103" lines="taxi"/>
           </person>
           <person id="35" depart="817.764000" color="yellow" departPos="58">
               <walk from="E2296" to="E2296" arrivalPos="58"/>
               <ride from="E2296" to="E5103" lines="taxi"/>
           </person>
           <person id="36" depart="820.548000" color="yellow" departPos="56">
               <walk from="E2489" to="E2489" arrivalPos="56"/>
               <ride from="E2489" to="E5103" lines="taxi"/>
           </person>
           <person id="37" depart="863.268000" color="yellow" departPos="67">
               <walk from="E1068" to="E1068" arrivalPos="67"/>
               <ride from="E1068" to="E5103" lines="taxi"/>
           </person>
           <person id="38" depart="874.824000" color="yellow" departPos="48">
               <walk from="E4910" to="E4910" arrivalPos="48"/>
               <ride from="E4910" to="E5103" lines="taxi"/>
           </person>
           <person id="39" depart="1017.060000" color="yellow" departPos="54">
               <walk from="E479" to="E479" arrivalPos="54"/>
               <ride from="E479" to="E5103" lines="taxi"/>
           </person>
           <person id="40" depart="1021.872000" color="yellow" departPos="40">
               <walk from="-E5103" to="-E5103" arrivalPos="40"/>
               <ride from="-E5103" to="E4912" lines="taxi"/>
           </person>
           <person id="41" depart="1051.392000" color="yellow" departPos="54">
               <walk from="-E50" to="-E50" arrivalPos="54"/>
               <ride from="-E50" to="E5103" lines="taxi"/>
           </person>
           <person id="42" depart="1052.700000" color="yellow" departPos="55">
               <walk from="E1276" to="E1276" arrivalPos="55"/>
               <ride from="E1276" to="E5103" lines="taxi"/>
           </person>
           <person id="43" depart="1066.332000" color="yellow" departPos="50">
               <walk from="-E4972" to="-E4972" arrivalPos="50"/>
               <ride from="-E4972" to="E5103" lines="taxi"/>
           </person>
           <person id="44" depart="1139.664000" color="yellow" departPos="48">
               <walk from="E398" to="E398" arrivalPos="48"/>
               <ride from="E398" to="E5103" lines="taxi"/>
           </person>
           <person id="45" depart="1151.136000" color="yellow" departPos="65">
               <walk from="E4619" to="E4619" arrivalPos="65"/>
               <ride from="E4619" to="E5103" lines="taxi"/>
           </person>
           <person id="46" depart="1181.796000" color="yellow" departPos="57">
               <walk from="E2561" to="E2561" arrivalPos="57"/>
               <ride from="E2561" to="E5103" lines="taxi"/>
           </person>
           <person id="47" depart="1201.356000" color="yellow" departPos="66">
               <walk from="E5100" to="E5100" arrivalPos="66"/>
               <ride from="E5100" to="E5103" lines="taxi"/>
           </person>
           <person id="48" depart="1207.860000" color="yellow" departPos="52">
               <walk from="-E2502" to="-E2502" arrivalPos="52"/>
               <ride from="-E2502" to="E5103" lines="taxi"/>
           </person>
           <person id="49" depart="1215.480000" color="yellow" departPos="60">
               <walk from="-E4694" to="-E4694" arrivalPos="60"/>
               <ride from="-E4694" to="E5103" lines="taxi"/>
           </person>
           <person id="50" depart="1258.620000" color="yellow" departPos="100">
               <walk from="-E5103" to="-E5103" arrivalPos="100"/>
               <ride from="-E5103" to="E1419" lines="taxi"/>
           </person>
           <person id="51" depart="1267.908000" color="yellow" departPos="45">
               <walk from="E4956" to="E4956" arrivalPos="45"/>
               <ride from="E4956" to="E5103" lines="taxi"/>
           </person>
           <person id="52" depart="1275.720000" color="yellow" departPos="48">
               <walk from="E3541" to="E3541" arrivalPos="48"/>
               <ride from="E3541" to="E5103" lines="taxi"/>
           </person>
           <person id="53" depart="1299.552000" color="yellow" departPos="50">
               <walk from="E2316" to="E2316" arrivalPos="50"/>
               <ride from="E2316" to="E5103" lines="taxi"/>
           </person>
           <person id="54" depart="1301.772000" color="yellow" departPos="42">
               <walk from="E2505" to="E2505" arrivalPos="42"/>
               <ride from="E2505" to="E5103" lines="taxi"/>
           </person>
           <person id="55" depart="1321.188000" color="yellow" departPos="60">
               <walk from="-E4323" to="-E4323" arrivalPos="60"/>
               <ride from="-E4323" to="E5103" lines="taxi"/>
           </person>
           <person id="56" depart="1326.228000" color="yellow" departPos="45">
               <walk from="E3063" to="E3063" arrivalPos="45"/>
               <ride from="E3063" to="E5103" lines="taxi"/>
           </person>
           <person id="57" depart="1405.116000" color="yellow" departPos="48">
               <walk from="-E4360" to="-E4360" arrivalPos="48"/>
               <ride from="-E4360" to="E5103" lines="taxi"/>
           </person>
           <person id="58" depart="1442.760000" color="yellow" departPos="43">
               <walk from="E2189" to="E2189" arrivalPos="43"/>
               <ride from="E2189" to="E5103" lines="taxi"/>
           </person>
           <person id="59" depart="1456.944000" color="yellow" departPos="51">
               <walk from="E4408" to="E4408" arrivalPos="51"/>
               <ride from="E4408" to="E5103" lines="taxi"/>
           </person>
           <person id="60" depart="1501.908000" color="yellow" departPos="40">
               <walk from="-E5103" to="-E5103" arrivalPos="40"/>
               <ride from="-E5103" to="E4967" lines="taxi"/>
           </person>
           <person id="61" depart="1515.900000" color="yellow" departPos="61">
               <walk from="-E3636" to="-E3636" arrivalPos="61"/>
               <ride from="-E3636" to="E5103" lines="taxi"/>
           </person>
           <person id="62" depart="1535.232000" color="yellow" departPos="41">
               <walk from="E5025" to="E5025" arrivalPos="41"/>
               <ride from="E5025" to="E5103" lines="taxi"/>
           </person>
           <person id="63" depart="1564.716000" color="yellow" departPos="50">
               <walk from="-E4774" to="-E4774" arrivalPos="50"/>
               <ride from="-E4774" to="E5103" lines="taxi"/>
           </person>
           <person id="64" depart="1610.172000" color="yellow" departPos="40">
               <walk from="E2323" to="E2323" arrivalPos="40"/>
               <ride from="E2323" to="E5103" lines="taxi"/>
           </person>
           <person id="65" depart="1638.588000" color="yellow" departPos="58">
               <walk from="E1684" to="E1684" arrivalPos="58"/>
               <ride from="E1684" to="E5103" lines="taxi"/>
           </person>
           <person id="66" depart="1644.312000" color="yellow" departPos="61">
               <walk from="-E2551" to="-E2551" arrivalPos="61"/>
               <ride from="-E2551" to="E5103" lines="taxi"/>
           </person>
           <person id="67" depart="1730.328000" color="yellow" departPos="56">
               <walk from="E701" to="E701" arrivalPos="56"/>
               <ride from="E701" to="E5103" lines="taxi"/>
           </person>
           <person id="68" depart="1730.868000" color="yellow" departPos="66">
               <walk from="E3057" to="E3057" arrivalPos="66"/>
               <ride from="E3057" to="E5103" lines="taxi"/>
           </person>
           <person id="69" depart="1737.192000" color="yellow" departPos="47">
               <walk from="-E1996" to="-E1996" arrivalPos="47"/>
               <ride from="-E1996" to="E5103" lines="taxi"/>
           </person>
           <person id="70" depart="1738.812000" color="yellow" departPos="80">
               <walk from="-E5103" to="-E5103" arrivalPos="80"/>
               <ride from="-E5103" to="E4681" lines="taxi"/>
           </person>
           <person id="71" depart="1803.864000" color="yellow" departPos="63">
               <walk from="-E4218" to="-E4218" arrivalPos="63"/>
               <ride from="-E4218" to="E5103" lines="taxi"/>
           </person>
           <person id="72" depart="1834.908000" color="yellow" departPos="58">
               <walk from="E2501" to="E2501" arrivalPos="58"/>
               <ride from="E2501" to="E5103" lines="taxi"/>
           </person>
           <person id="73" depart="1881.516000" color="yellow" departPos="50">
               <walk from="E4370" to="E4370" arrivalPos="50"/>
               <ride from="E4370" to="E5103" lines="taxi"/>
           </person>
           <person id="74" depart="1899.768000" color="yellow" departPos="61">
               <walk from="E4872" to="E4872" arrivalPos="61"/>
               <ride from="E4872" to="E5103" lines="taxi"/>
           </person>
           <person id="75" depart="1919.856000" color="yellow" departPos="47">
               <walk from="-E2941" to="-E2941" arrivalPos="47"/>
               <ride from="-E2941" to="E5103" lines="taxi"/>
           </person>
           <person id="76" depart="1929.984000" color="yellow" departPos="65">
               <walk from="E1420" to="E1420" arrivalPos="65"/>
               <ride from="E1420" to="E5103" lines="taxi"/>
           </person>
           <person id="77" depart="1941.396000" color="yellow" departPos="41">
               <walk from="-E2601" to="-E2601" arrivalPos="41"/>
               <ride from="-E2601" to="E5103" lines="taxi"/>
           </person>
           <person id="78" depart="1947.336000" color="yellow" departPos="57">
               <walk from="E1869" to="E1869" arrivalPos="57"/>
               <ride from="E1869" to="E5103" lines="taxi"/>
           </person>
           <person id="79" depart="2088.876000" color="yellow" departPos="54">
               <walk from="E5018" to="E5018" arrivalPos="54"/>
               <ride from="E5018" to="E5103" lines="taxi"/>
           </person>
           <person id="80" depart="2105.136000" color="yellow" departPos="40">
               <walk from="-E5103" to="-E5103" arrivalPos="40"/>
               <ride from="-E5103" to="-E4921" lines="taxi"/>
           </person>
           <person id="81" depart="2117.820000" color="yellow" departPos="42">
               <walk from="E5072" to="E5072" arrivalPos="42"/>
               <ride from="E5072" to="E5103" lines="taxi"/>
           </person>
           <person id="82" depart="2127.972000" color="yellow" departPos="63">
               <walk from="E2399" to="E2399" arrivalPos="63"/>
               <ride from="E2399" to="E5103" lines="taxi"/>
           </person>
           <person id="83" depart="2131.728000" color="yellow" departPos="67">
               <walk from="-E4805" to="-E4805" arrivalPos="67"/>
               <ride from="-E4805" to="E5103" lines="taxi"/>
           </person>
           <person id="84" depart="2150.256000" color="yellow" departPos="43">
               <walk from="E4118" to="E4118" arrivalPos="43"/>
               <ride from="E4118" to="E5103" lines="taxi"/>
           </person>
           <person id="85" depart="2180.796000" color="yellow" departPos="48">
               <walk from="-E2501" to="-E2501" arrivalPos="48"/>
               <ride from="-E2501" to="E5103" lines="taxi"/>
           </person>
           <person id="86" depart="2283.672000" color="yellow" departPos="43">
               <walk from="-E4771" to="-E4771" arrivalPos="43"/>
               <ride from="-E4771" to="E5103" lines="taxi"/>
           </person>
           <person id="87" depart="2387.292000" color="yellow" departPos="58">
               <walk from="E2567" to="E2567" arrivalPos="58"/>
               <ride from="E2567" to="E5103" lines="taxi"/>
           </person>
           <person id="88" depart="2408.076000" color="yellow" departPos="60">
               <walk from="E1989" to="E1989" arrivalPos="60"/>
               <ride from="E1989" to="E5103" lines="taxi"/>
           </person>
           <person id="89" depart="2418.384000" color="yellow" departPos="60">
               <walk from="-E5014" to="-E5014" arrivalPos="60"/>
               <ride from="-E5014" to="E5103" lines="taxi"/>
           </person>
           <person id="90" depart="2522.268000" color="yellow" departPos="40">
               <walk from="-E5103" to="-E5103" arrivalPos="40"/>
               <ride from="-E5103" to="-E1993" lines="taxi"/>
           </person>
           <person id="91" depart="2531.964000" color="yellow" departPos="51">
               <walk from="E2593" to="E2593" arrivalPos="51"/>
               <ride from="E2593" to="E5103" lines="taxi"/>
           </person>
           <person id="92" depart="2618.100000" color="yellow" departPos="52">
               <walk from="E2949" to="E2949" arrivalPos="52"/>
               <ride from="E2949" to="E5103" lines="taxi"/>
           </person>
           <person id="93" depart="2628.336000" color="yellow" departPos="51">
               <walk from="E2601" to="E2601" arrivalPos="51"/>
               <ride from="E2601" to="E5103" lines="taxi"/>
           </person>
           <person id="94" depart="2662.296000" color="yellow" departPos="42">
               <walk from="-E4063" to="-E4063" arrivalPos="42"/>
               <ride from="-E4063" to="E5103" lines="taxi"/>
           </person>
           <person id="95" depart="2667.792000" color="yellow" departPos="44">
               <walk from="-E1581" to="-E1581" arrivalPos="44"/>
               <ride from="-E1581" to="E5103" lines="taxi"/>
           </person>
           <person id="96" depart="2671.980000" color="yellow" departPos="53">
               <walk from="-E2982" to="-E2982" arrivalPos="53"/>
               <ride from="-E2982" to="E5103" lines="taxi"/>
           </person>
           <person id="97" depart="2714.136000" color="yellow" departPos="53">
               <walk from="E2298" to="E2298" arrivalPos="53"/>
               <ride from="E2298" to="E5103" lines="taxi"/>
           </person>
           <person id="98" depart="2724.528000" color="yellow" departPos="47">
               <walk from="-E465" to="-E465" arrivalPos="47"/>
               <ride from="-E465" to="E5103" lines="taxi"/>
           </person>
           <person id="99" depart="2749.980000" color="yellow" departPos="66">
               <walk from="E2293" to="E2293" arrivalPos="66"/>
               <ride from="E2293" to="E5103" lines="taxi"/>
           </person>
           <person id="100" depart="2848.104000" color="yellow" departPos="40">
               <walk from="-E5103" to="-E5103" arrivalPos="40"/>
               <ride from="-E5103" to="E4674" lines="taxi"/>
           </person>
           <person id="101" depart="2923.812000" color="yellow" departPos="63">
               <walk from="E5050" to="E5050" arrivalPos="63"/>
               <ride from="E5050" to="E5103" lines="taxi"/>
           </person>
           <person id="102" depart="2928.780000" color="yellow" departPos="64">
               <walk from="-E4802" to="-E4802" arrivalPos="64"/>
               <ride from="-E4802" to="E5103" lines="taxi"/>
           </person>
           <person id="103" depart="2958.432000" color="yellow" departPos="47">
               <walk from="E2364" to="E2364" arrivalPos="47"/>
               <ride from="E2364" to="E5103" lines="taxi"/>
           </person>
           <person id="104" depart="2992.032000" color="yellow" departPos="46">
               <walk from="-E378" to="-E378" arrivalPos="46"/>
               <ride from="-E378" to="E5103" lines="taxi"/>
           </person>
           <person id="105" depart="2993.112000" color="yellow" departPos="68">
               <walk from="E49" to="E49" arrivalPos="68"/>
               <ride from="E49" to="E5103" lines="taxi"/>
           </person>
           <person id="106" depart="2999.460000" color="yellow" departPos="55">
               <walk from="E5087" to="E5087" arrivalPos="55"/>
               <ride from="E5087" to="E5103" lines="taxi"/>
           </person>
           <person id="107" depart="3054.240000" color="yellow" departPos="47">
               <walk from="E4345" to="E4345" arrivalPos="47"/>
               <ride from="E4345" to="E5103" lines="taxi"/>
           </person>
           <person id="108" depart="3077.712000" color="yellow" departPos="57">
               <walk from="-E5041" to="-E5041" arrivalPos="57"/>
               <ride from="-E5041" to="E5103" lines="taxi"/>
           </person>
           <person id="109" depart="3081.048000" color="yellow" departPos="55">
               <walk from="-E4918" to="-E4918" arrivalPos="55"/>
               <ride from="-E4918" to="E5103" lines="taxi"/>
           </person>
           <person id="110" depart="3098.076000" color="yellow" departPos="40">
               <walk from="-E5103" to="-E5103" arrivalPos="40"/>
               <ride from="-E5103" to="E4962" lines="taxi"/>
           </person>
           <person id="111" depart="3121.296000" color="yellow" departPos="50">
               <walk from="E2187" to="E2187" arrivalPos="50"/>
               <ride from="E2187" to="E5103" lines="taxi"/>
           </person>
           <person id="112" depart="3122.496000" color="yellow" departPos="51">
               <walk from="E2580" to="E2580" arrivalPos="51"/>
               <ride from="E2580" to="E5103" lines="taxi"/>
           </person>
           <person id="113" depart="3124.152000" color="yellow" departPos="60">
               <walk from="-E509" to="-E509" arrivalPos="60"/>
               <ride from="-E509" to="E5103" lines="taxi"/>
           </person>
           <person id="114" depart="3142.896000" color="yellow" departPos="57">
               <walk from="-E1124" to="-E1124" arrivalPos="57"/>
               <ride from="-E1124" to="E5103" lines="taxi"/>
           </person>
           <person id="115" depart="3181.128000" color="yellow" departPos="40">
               <walk from="-E2662" to="-E2662" arrivalPos="40"/>
               <ride from="-E2662" to="E5103" lines="taxi"/>
           </person>
           <person id="116" depart="3190.308000" color="yellow" departPos="59">
               <walk from="E2598" to="E2598" arrivalPos="59"/>
               <ride from="E2598" to="E5103" lines="taxi"/>
           </person>
           <person id="117" depart="3200.424000" color="yellow" departPos="69">
               <walk from="E5089" to="E5089" arrivalPos="69"/>
               <ride from="E5089" to="E5103" lines="taxi"/>
           </person>
           <person id="118" depart="3202.776000" color="yellow" departPos="52">
               <walk from="E3911" to="E3911" arrivalPos="52"/>
               <ride from="E3911" to="E5103" lines="taxi"/>
           </person>
           <person id="119" depart="3218.748000" color="yellow" departPos="60">
               <walk from="-E4443" to="-E4443" arrivalPos="60"/>
               <ride from="-E4443" to="E5103" lines="taxi"/>
           </person>
           <person id="120" depart="3262.344000" color="yellow" departPos="40">
               <walk from="-E5103" to="-E5103" arrivalPos="40"/>
               <ride from="-E5103" to="-E2399" lines="taxi"/>
           </person>
           <person id="121" depart="3300.924000" color="yellow" departPos="57">
               <walk from="E5015" to="E5015" arrivalPos="57"/>
               <ride from="E5015" to="E5103" lines="taxi"/>
           </person>
           <person id="122" depart="3309.744000" color="yellow" departPos="58">
               <walk from="E594" to="E594" arrivalPos="58"/>
               <ride from="E594" to="E5103" lines="taxi"/>
           </person>
           <person id="123" depart="3329.028000" color="yellow" departPos="67">
               <walk from="-E629" to="-E629" arrivalPos="67"/>
               <ride from="-E629" to="E5103" lines="taxi"/>
           </person>
           <person id="124" depart="3352.200000" color="yellow" departPos="51">
               <walk from="E2403" to="E2403" arrivalPos="51"/>
               <ride from="E2403" to="E5103" lines="taxi"/>
           </person>
           <person id="125" depart="3362.820000" color="yellow" departPos="61">
               <walk from="E3195" to="E3195" arrivalPos="61"/>
               <ride from="E3195" to="E5103" lines="taxi"/>
           </person>
           <person id="126" depart="3383.820000" color="yellow" departPos="64">
               <walk from="-E2396" to="-E2396" arrivalPos="64"/>
               <ride from="-E2396" to="E5103" lines="taxi"/>
           </person>
           <person id="127" depart="3403.356000" color="yellow" departPos="56">
               <walk from="E837" to="E837" arrivalPos="56"/>
               <ride from="E837" to="E5103" lines="taxi"/>
           </person>
           <person id="128" depart="3428.964000" color="yellow" departPos="63">
               <walk from="-E2596" to="-E2596" arrivalPos="63"/>
               <ride from="-E2596" to="E5103" lines="taxi"/>
           </person>
           <person id="129" depart="3429.864000" color="yellow" departPos="59">
               <walk from="E4459" to="E4459" arrivalPos="59"/>
               <ride from="E4459" to="E5103" lines="taxi"/>
           </person>
           <person id="130" depart="3447.252000" color="yellow" departPos="100">
               <walk from="-E5103" to="-E5103" arrivalPos="100"/>
               <ride from="-E5103" to="-E3498" lines="taxi"/>
           </person>
           <person id="131" depart="3451.812000" color="yellow" departPos="45">
               <walk from="E4523" to="E4523" arrivalPos="45"/>
               <ride from="E4523" to="E5103" lines="taxi"/>
           </person>
           <person id="132" depart="3479.544000" color="yellow" departPos="58">
               <walk from="-E5072" to="-E5072" arrivalPos="58"/>